data_serin
_audit_creation_date               2023-11-02
_audit_creation_method
;
Olex2 1.5
(compiled 2021.10.07 svn.r9718050b for OlexSys, GUI svn.r6410)
;
_shelx_SHELXL_version_number       '2018/3'
_audit_contact_author_address      ?
_audit_contact_author_email        ?
_audit_contact_author_name         ''
_audit_contact_author_phone        ?
_publ_contact_author_id_orcid      ?
_publ_section_references
;
Dolomanov, O.V., Bourhis, L.J., Gildea, R.J, Howard, J.A.K. & Puschmann, H.
 (2009), J. Appl. Cryst. 42, 339-341.

Sheldrick, G.M. (2015). Acta Cryst. A71, 3-8.

Sheldrick, G.M. (2015). Acta Cryst. C71, 3-8.
;
_chemical_name_common              ?
_chemical_name_systematic          ?
_chemical_formula_moiety           'C3 H7 N O3'
_chemical_formula_sum              'C3 H7 N O3'
_chemical_formula_weight           105.10
_chemical_melting_point            ?
loop_
  _atom_type_symbol
  _atom_type_description
  _atom_type_scat_dispersion_real
  _atom_type_scat_dispersion_imag
  _atom_type_scat_source
 'C' 'C' 0.0033 0.0016 'International Tables Vol C Tables 4.2.6.8 and 6.1.1.4'
 'H' 'H' 0.0000 0.0000 'International Tables Vol C Tables 4.2.6.8 and 6.1.1.4'
 'N' 'N' 0.0061 0.0033 'International Tables Vol C Tables 4.2.6.8 and 6.1.1.4'
 'O' 'O' 0.0106 0.0060 'International Tables Vol C Tables 4.2.6.8 and 6.1.1.4'

_shelx_space_group_comment
;
The symmetry employed for this shelxl refinement is uniquely defined
by the following loop, which should always be used as a source of
symmetry information in preference to the above space-group names.
They are only intended as comments.
;
_space_group_crystal_system        'monoclinic'
_space_group_IT_number             14
_space_group_name_H-M_alt          'P 1 21/c 1'
_space_group_name_Hall             '-P 2ybc'
loop_
  _space_group_symop_operation_xyz
 'x, y, z'
 '-x, y+1/2, -z+1/2'
 '-x, -y, -z'
 'x, -y-1/2, z-1/2'

_cell_length_a                     4.779
_cell_length_b                     9.195
_cell_length_c                     10.776
_cell_angle_alpha                  90
_cell_angle_beta                   106.87
_cell_angle_gamma                  90
_cell_volume                       453.1
_cell_formula_units_Z              4
_cell_measurement_reflns_used      ?
_cell_measurement_temperature      293(2)
_cell_measurement_theta_max        ?
_cell_measurement_theta_min        ?
_shelx_estimated_absorpt_T_max     ?
_shelx_estimated_absorpt_T_min     ?
_exptl_absorpt_coefficient_mu      0.138
_exptl_absorpt_correction_T_max    ?
_exptl_absorpt_correction_T_min    ?
_exptl_absorpt_correction_type     ?
_exptl_absorpt_process_details     ?
_exptl_absorpt_special_details     ?
_exptl_crystal_colour              ?
_exptl_crystal_density_diffrn      1.541
_exptl_crystal_density_meas        ?
_exptl_crystal_density_method      ?
_exptl_crystal_description         ?
_exptl_crystal_F_000               224
_exptl_crystal_size_max            ?
_exptl_crystal_size_mid            ?
_exptl_crystal_size_min            ?
_exptl_transmission_factor_max     ?
_exptl_transmission_factor_min     ?
_diffrn_reflns_av_R_equivalents    ?
_diffrn_reflns_av_unetI/netI       0.0288
_diffrn_reflns_Laue_measured_fraction_full  0.956
_diffrn_reflns_Laue_measured_fraction_max  0.795
_diffrn_reflns_limit_h_max         ?
_diffrn_reflns_limit_h_min         ?
_diffrn_reflns_limit_k_max         ?
_diffrn_reflns_limit_k_min         ?
_diffrn_reflns_limit_l_max         ?
_diffrn_reflns_limit_l_min         ?
_diffrn_reflns_number              4999
_diffrn_reflns_point_group_measured_fraction_full  0.956
_diffrn_reflns_point_group_measured_fraction_max  0.795
_diffrn_reflns_theta_full          25.242
_diffrn_reflns_theta_max           57.212
_diffrn_reflns_theta_min           2.968
_diffrn_ambient_temperature        293(2)
_diffrn_detector_area_resol_mean   ?
_diffrn_measured_fraction_theta_full  0.956
_diffrn_measured_fraction_theta_max  0.795
_diffrn_measurement_device_type    ?
_diffrn_measurement_method         ?
_diffrn_radiation_type             MoK\a
_diffrn_radiation_wavelength       0.71073
_diffrn_source                     ?
_reflns_Friedel_coverage           0.000
_reflns_Friedel_fraction_full      .
_reflns_Friedel_fraction_max       .
_reflns_number_gt                  4284
_reflns_number_total               4999
_reflns_special_details
;
 Reflections were merged by SHELXL according to the crystal
 class for the calculation of statistics and refinement.
 
 _reflns_Friedel_fraction is defined as the number of unique
 Friedel pairs measured divided by the number that would be
 possible theoretically, ignoring centric projections and
 systematic absences.
;
_reflns_threshold_expression       'I > 2\s(I)'
_computing_cell_refinement         ?
_computing_data_collection         ?
_computing_data_reduction          ?
_computing_molecular_graphics      'Olex2 1.5 (Dolomanov et al., 2009)'
_computing_publication_material    'Olex2 1.5 (Dolomanov et al., 2009)'
_computing_structure_refinement    'SHELXL 2018/3 (Sheldrick, 2015)'
_computing_structure_solution      'SHELXT 2018/2 (Sheldrick, 2018)'
_refine_diff_density_max           0.601
_refine_diff_density_min           -0.485
_refine_diff_density_rms           0.079
_refine_ls_extinction_coef         .
_refine_ls_extinction_method       none
_refine_ls_goodness_of_fit_ref     1.024
_refine_ls_hydrogen_treatment      refall
_refine_ls_matrix_type             full
_refine_ls_number_parameters       92
_refine_ls_number_reflns           4999
_refine_ls_number_restraints       0
_refine_ls_R_factor_all            0.0333
_refine_ls_R_factor_gt             0.0284
_refine_ls_restrained_S_all        1.024
_refine_ls_shift/su_max            0.001
_refine_ls_shift/su_mean           0.000
_refine_ls_structure_factor_coef   Fsqd
_refine_ls_weighting_details      
 'w=1/[\s^2^(Fo^2^)+(0.0501P)^2^] where P=(Fo^2^+2Fc^2^)/3'
_refine_ls_weighting_scheme        calc
_refine_ls_wR_factor_gt            0.0783
_refine_ls_wR_factor_ref           0.0815
_refine_special_details            ?
_olex2_refinement_description
;
;
_atom_sites_solution_hydrogens     difmap
_atom_sites_solution_primary       dual
_atom_sites_solution_secondary     ?
loop_
  _atom_site_label
  _atom_site_type_symbol
  _atom_site_fract_x
  _atom_site_fract_y
  _atom_site_fract_z
  _atom_site_U_iso_or_equiv
  _atom_site_adp_type
  _atom_site_occupancy
  _atom_site_site_symmetry_order
  _atom_site_calc_flag
  _atom_site_refinement_flags_posn
  _atom_site_refinement_flags_adp
  _atom_site_refinement_flags_occupancy
  _atom_site_disorder_assembly
  _atom_site_disorder_group
 O001 O 0.24825(5) 0.48895(2) 0.67114(2) 0.00799(3) Uani 1 1 d . . . . .
 O002 O 0.57275(5) 0.59297(2) 0.84142(2) 0.00784(3) Uani 1 1 d . . . . .
 O003 O 0.27876(5) 0.82451(2) 0.57118(2) 0.00829(3) Uani 1 1 d . . . . .
 N004 N 0.25625(5) 0.82656(2) 0.84674(2) 0.00655(3) Uani 1 1 d . . . . .
 C005 C 0.33378(6) 0.58954(2) 0.75356(2) 0.00591(3) Uani 1 1 d . . . . .
 C006 C 0.03018(6) 0.78363(3) 0.61053(2) 0.00715(4) Uani 1 1 d . . . . .
 C007 C 0.12112(6) 0.71642(2) 0.74551(2) 0.00594(3) Uani 1 1 d . . . . .
 H00D H -0.084(2) 0.7104(10) 0.5501(9) 0.0122(17) Uiso 1 1 d . . . . .
 H00E H -0.099(2) 0.8662(11) 0.6087(9) 0.0144(18) Uiso 1 1 d . . . . .
 H007 H -0.048(2) 0.6800(10) 0.7662(8) 0.0132(18) Uiso 1 1 d . . . . .
 H00A H 0.301(2) 0.7815(12) 0.9274(10) 0.020(2) Uiso 1 1 d . . . . .
 H00B H 0.416(2) 0.8689(11) 0.8344(10) 0.0174(19) Uiso 1 1 d . . . . .
 H00C H 0.123(2) 0.8917(12) 0.8481(10) 0.019(2) Uiso 1 1 d . . . . .
 H003 H 0.320(3) 0.9179(13) 0.5945(11) 0.031(3) Uiso 1 1 d . . . . .

loop_
  _atom_site_aniso_label
  _atom_site_aniso_U_11
  _atom_site_aniso_U_22
  _atom_site_aniso_U_33
  _atom_site_aniso_U_23
  _atom_site_aniso_U_13
  _atom_site_aniso_U_12
 O001 0.00762(8) 0.00682(5) 0.00945(6) -0.00217(4) 0.00235(5) -0.00064(4)
 O002 0.00604(8) 0.00768(6) 0.00875(6) -0.00016(4) 0.00053(5) 0.00077(4)
 O003 0.00989(8) 0.00833(6) 0.00802(6) -0.00118(4) 0.00479(5) -0.00234(5)
 N004 0.00697(8) 0.00650(6) 0.00636(5) -0.00008(4) 0.00221(5) 0.00060(5)
 C005 0.00541(9) 0.00563(6) 0.00700(6) 0.00005(5) 0.00228(5) -0.00008(5)
 C006 0.00647(9) 0.00839(7) 0.00642(6) 0.00055(5) 0.00160(5) 0.00021(5)
 C007 0.00543(9) 0.00619(6) 0.00644(6) 0.00020(4) 0.00209(5) 0.00015(5)

_geom_special_details
;
 All esds (except the esd in the dihedral angle between two l.s. planes)
 are estimated using the full covariance matrix.  The cell esds are taken
 into account individually in the estimation of esds in distances, angles
 and torsion angles; correlations between esds in cell parameters are only
 used when they are defined by crystal symmetry.  An approximate (isotropic)
 treatment of cell esds is used for estimating esds involving l.s. planes.
;
loop_
  _geom_bond_atom_site_label_1
  _geom_bond_atom_site_label_2
  _geom_bond_distance
  _geom_bond_site_symmetry_2
  _geom_bond_publ_flag
 O001 C005 1.2652(3) . ?
 O002 C005 1.2546(3) . ?
 O003 C006 1.4229(3) . ?
 O003 H003 0.901(12) . ?
 N004 C007 1.4913(3) . ?
 N004 H00A 0.930(10) . ?
 N004 H00B 0.900(10) . ?
 N004 H00C 0.876(11) . ?
 C005 C007 1.5330(3) . ?
 C006 C007 1.5230(3) . ?
 C006 H00D 0.983(9) . ?
 C006 H00E 0.976(10) . ?
 C007 H007 0.957(9) . ?

loop_
  _geom_angle_atom_site_label_1
  _geom_angle_atom_site_label_2
  _geom_angle_atom_site_label_3
  _geom_angle
  _geom_angle_site_symmetry_1
  _geom_angle_site_symmetry_3
  _geom_angle_publ_flag
 C006 O003 H003 107.7(8) . . ?
 C007 N004 H00A 108.3(7) . . ?
 C007 N004 H00B 113.0(6) . . ?
 C007 N004 H00C 108.3(7) . . ?
 H00A N004 H00B 111.0(9) . . ?
 H00A N004 H00C 105.1(9) . . ?
 H00B N004 H00C 110.8(9) . . ?
 O001 C005 C007 116.28(2) . . ?
 O002 C005 O001 125.87(2) . . ?
 O002 C005 C007 117.83(2) . . ?
 O003 C006 C007 111.12(2) . . ?
 O003 C006 H00D 109.4(5) . . ?
 O003 C006 H00E 111.6(6) . . ?
 C007 C006 H00D 107.7(5) . . ?
 C007 C006 H00E 109.8(5) . . ?
 H00D C006 H00E 107.1(8) . . ?
 N004 C007 C005 109.64(2) . . ?
 N004 C007 C006 111.477(19) . . ?
 N004 C007 H007 106.4(5) . . ?
 C005 C007 H007 108.1(5) . . ?
 C006 C007 C005 111.322(19) . . ?
 C006 C007 H007 109.8(5) . . ?

loop_
  _geom_torsion_atom_site_label_1
  _geom_torsion_atom_site_label_2
  _geom_torsion_atom_site_label_3
  _geom_torsion_atom_site_label_4
  _geom_torsion
  _geom_torsion_site_symmetry_1
  _geom_torsion_site_symmetry_2
  _geom_torsion_site_symmetry_3
  _geom_torsion_site_symmetry_4
  _geom_torsion_publ_flag
 O001 C005 C007 N004 -178.80(2) . . . . ?
 O001 C005 C007 C006 -54.98(3) . . . . ?
 O002 C005 C007 N004 2.31(3) . . . . ?
 O002 C005 C007 C006 126.13(2) . . . . ?
 O003 C006 C007 N004 68.72(3) . . . . ?
 O003 C006 C007 C005 -54.05(3) . . . . ?

_shelx_res_file
;
TITL serin_a.res in P2(1)/c
    serin.res
    created by SHELXL-2018/3 at 15:27:09 on 02-Nov-2023
REM Old TITL Tablel in P21/a #14
REM SHELXT solution in P2(1)/c: R1 0.076, Rweak 0.002, Alpha 0.016
REM <I/s> 0.345 for 47 systematic absences, Orientation a'=c, b'=-b, c'=a
REM Formula found by SHELXT: C3 N O3
CELL 0.71073 4.7788 9.1947 10.7764 90 106.87 90
ZERR 4 0 0 0 0 0 0
LATT 1
SYMM -X,0.5+Y,0.5-Z
SFAC C H N O
UNIT 12 28 4 12

L.S. 10
PLAN  5
CONF
BOND
list 4
MORE -1
BOND $H
fmap 2
acta
REM <olex2.extras>
REM <HklSrc "%.\\Serin.hkl">
REM </olex2.extras>

WGHT    0.050100
FVAR       1.81774
O001    4     0.24831  0.48906  0.67124  11.00000  0.00712  0.00681  0.00944 =
 -0.00205  0.00216 -0.00034 
O002    4     0.57249  0.59300  0.84134  11.00000  0.00611  0.00725  0.00879 =
 -0.00036  0.00066  0.00092 
O003    4     0.27840  0.82463  0.57124  11.00000  0.00988  0.00836  0.00745 =
 -0.00099  0.00440 -0.00193 
N001    3     0.25626  0.82658  0.84677  11.00000  0.00674  0.00633  0.00619 =
 -0.00013  0.00218  0.00057 
C001    1     0.33384  0.58955  0.75355  11.00000  0.00515  0.00537  0.00672 =
 -0.00007  0.00213 -0.00006 
C003    1     0.03014  0.78366  0.61051  11.00000  0.00643  0.00794  0.00607 =
 0.00047  0.00143  0.00026 
C002    1     0.12104  0.71642  0.74552  11.00000  0.00499  0.00599  0.00630 =
 0.00042  0.00215  0.00035 
H03B   2    -0.09207  0.70277  0.54197  11.00000  0.01272  
H03A   2    -0.11429  0.87574  0.60795  11.00000  0.02231  
H002    2    -0.07070  0.67334  0.76629  11.00000  0.01591 
H01A   2     0.31548  0.77359  0.93471  11.00000  0.03066  
H01B   2     0.44013  0.87408  0.83240  11.00000  0.01543  
H01C   2     0.10386  0.90246  0.84723  11.00000  0.02535  
H003    2     0.32814  0.92229  0.59705  11.00000  0.02086 
HKLF 4




REM  serin_a.res in P2(1)/c
REM wR2 = 0.0815, GooF = S = 1.024, Restrained GooF = 1.024 for all data
REM R1 = 0.0284 for 4284 Fo > 4sig(Fo) and 0.0333 for all 4999 data
REM 92 parameters refined using 0 restraints

END

WGHT      0.0501      0.0000

REM Highest difference peak  0.601,  deepest hole -0.485,  1-sigma level  0.079
Q1    1   0.2953  0.5406  0.7198  11.00000  0.05    0.60
Q2    1   0.0714  0.7430  0.6979  11.00000  0.05    0.53
Q3    1   0.4632  0.5956  0.7937  11.00000  0.05    0.44
Q4    1   0.0750  0.7609  0.6642  11.00000  0.05    0.44
Q5    1   0.2468  0.6415  0.7523  11.00000  0.05    0.43
;
_shelx_res_checksum                47456
_shelx_hkl_file
;
  -8   0  -2  280.39    4.81
  -8  -1  -2   49.86    3.36
  -8  -2   7  240.64    4.08
  -8  -2  -1  187.88    3.62
  -8  -3   7   82.13    2.40
  -8  -3   6   70.11    2.14
  -8  -3   5   25.79    1.48
  -8  -3   1   61.68    2.21
  -8  -3   0  202.34    3.85
  -8  -3  -1   58.06    2.40
  -8  -4   7  141.87    6.75
  -8  -4   6    9.16    1.28
  -8  -4   5    0.00    0.96
  -8  -4   4   20.71    1.58
  -8  -4   3  113.22    2.90
  -8  -4   2  127.18    3.13
  -8  -4   1  271.23    4.81
  -8  -4   0  211.99    4.35
  -8  -5   7    7.21    1.38
  -8  -5   6   36.85    1.94
  -8  -5   5   21.44    1.75
  -8  -5   4    1.22    1.02
  -8  -5   3  313.65    5.53
  -8  -5   2    5.30    1.58
  -8  -5   1   10.83    1.65
  -8  -6   7   87.20    4.35
  -8  -6   6  387.12   43.37
  -8  -6   5    9.39    2.37
  -8  -6   4    1.68    1.48
  -8  -6   3   89.12    2.63
  -8 -14   7   68.66    1.98
  -8 -14   6   73.47    1.98
  -7   0  -3    1.94    0.89
  -7   0  -4  168.88    3.62
  -7   0  -5    0.00    1.09
  -7   0  -6  183.33    4.58
  -7  -1  -1   40.47    1.51
  -7  -1  -2   22.66    1.38
  -7  -1  -3   67.45    2.17
  -7  -1  -4   32.77    1.84
  -7  -1  -5   39.98    2.14
  -7  -1  -6   -0.49    1.84
  -7  -2   6  415.05    4.81
  -7  -2   0   86.48    1.94
  -7  -2  -1    9.16    1.09
  -7  -2  -2  288.59    4.58
  -7  -2  -3   14.95    1.48
  -7  -2  -4  126.95    3.36
  -7  -2  -5   86.25    2.90
  -7  -2  -6   13.24    1.84
  -7  -3   6   81.67    2.04
  -7  -3   3    0.72    0.72
  -7  -3   1    4.58    0.96
  -7  -3  -1  187.88    9.39
  -7  -3  -2  496.23    8.66
  -7  -3  -3   18.80    1.78
  -7  -3  -4  295.11    5.80
  -7  -3  -5  253.91    5.53
  -7  -3  -6    3.36    1.35
  -7  -4   6  232.21    3.62
  -7  -4   5   47.95    1.68
  -7  -4   1    5.30    0.96
  -7  -4   0    8.20    1.58
  -7  -4  -1  112.00    2.63
  -7  -4  -2   -0.72    0.99
  -7  -4  -3    7.21    1.42
  -7  -4  -4   -0.23    1.28
  -7  -4  -5   86.71    3.36
  -7  -5   6   54.21    2.01
  -7  -5   5    0.96    0.92
  -7  -5   4   22.66    1.58
  -7  -5   3   -0.23    1.09
  -7  -5   2    5.80    1.22
  -7  -5   1  322.31    9.39
  -7  -5   0  135.88    6.49
  -7  -5  -1  249.79   13.50
  -7  -5  -2    8.66    1.48
  -7  -5  -3  260.17    5.30
  -7  -5  -4  122.61    3.85
  -7  -5  -5  113.22    3.85
  -7  -6   6  275.81    5.53
  -7  -6   5    0.72    1.02
  -7  -6   4    9.65    3.36
  -7  -6   3  111.77    6.49
  -7  -6   2    3.13    1.02
  -7  -6   1   17.36    1.65
  -7  -6   0    3.62    2.01
  -7  -6  -1   12.28    1.75
  -7  -6  -2   35.67    2.17
  -7  -6  -3   38.53    2.27
  -7  -6  -4   35.17    2.34
  -7  -7   6    1.68    1.19
  -7  -7   5    9.16    1.48
  -7  -7   4    2.63    1.12
  -7  -7   3    1.22    1.05
  -7  -7   2   33.72    1.94
  -7  -7   1   14.95    1.78
  -7  -7   0   90.56    6.03
  -7  -7  -1    2.63    2.17
  -7  -7  -2  116.12    5.30
  -7  -7  -3   92.28    3.36
  -7  -7 -11   18.54    1.35
  -7  -8   6   31.55    4.08
  -7  -8   5   60.96    5.30
  -7  -8   4  181.39    4.58
  -7  -8   3    1.22    1.15
  -7  -8   2  152.74    5.80
  -7  -8   1  188.87    7.21
  -7  -8   0   42.88    2.63
  -7  -8  -1    5.53    1.84
  -7  -8 -10    9.39    1.32
  -7  -8 -11  121.88    2.63
  -7  -9   6  200.66    7.71
  -7  -9   5   14.23    2.21
  -7  -9   4    5.07    2.11
  -7  -9   3    7.71    1.48
  -7  -9   2    8.66    1.61
  -7  -9   1  251.74    6.98
  -7  -9   0    3.36    2.07
  -7  -9  -8   -2.40    1.25
  -7  -9  -9   12.51    1.55
  -7  -9 -10    0.49    1.32
  -7 -10  -6   51.54    1.84
  -7 -10  -7    3.13    1.09
  -7 -10  -8    6.98    1.28
  -7 -10  -9   59.25    2.24
  -7 -11   6   93.46    2.27
  -7 -11   5   53.71    1.78
  -7 -11   4   84.80    2.11
  -7 -11  -2    1.45    0.86
  -7 -11  -3   37.81    1.65
  -7 -11  -4  134.89    2.63
  -7 -11  -5   31.81    1.61
  -7 -11  -6   29.87    1.61
  -7 -11  -7  108.64    2.40
  -7 -11  -8   11.56    1.42
  -7 -12   6   45.28    2.01
  -7 -12   5   89.84    2.27
  -7 -12   4  141.41    2.63
  -7 -12   3    8.92    1.48
  -7 -12   2    1.68    0.89
  -7 -12   1   11.07    1.38
  -7 -12   0   10.83    1.32
  -7 -12  -1    3.13    0.96
  -7 -12  -2   71.53    2.01
  -7 -12  -3    0.96    0.92
  -7 -12  -4   31.32    1.61
  -7 -12  -5   64.55    2.01
  -7 -12  -6   44.33    1.78
  -7 -12  -7    8.43    1.38
  -7 -13   6   83.58    2.63
  -7 -13   5   21.67    1.75
  -7 -13   4   22.66    1.58
  -7 -13   3    0.49    0.99
  -7 -13   2   41.92    1.84
  -7 -13   1   11.56    1.35
  -7 -13   0    1.45    1.05
  -7 -13  -1   10.60    1.38
  -7 -13  -2  181.16    3.13
  -7 -13  -3   10.37    1.48
  -7 -13  -4  404.71    5.53
  -7 -13  -5   22.39    1.55
  -7 -13  -6    1.68    0.96
  -7 -14   6   12.51    1.58
  -7 -14   5   73.47    2.40
  -7 -14   4  179.22    3.36
  -7 -14   3    8.66    1.38
  -7 -14   2   29.87    1.75
  -7 -14   1   -1.22    1.05
  -7 -14   0   14.95    1.42
  -7 -14  -1    2.40    1.15
  -7 -14  -2    2.90    1.09
  -7 -14  -3   -1.22    0.96
  -7 -14  -4    7.48    1.38
  -7 -15   6   23.12    5.30
  -7 -15   5    3.36    1.02
  -7 -15   4   34.45    1.98
  -7 -15   3    2.90    1.05
  -7 -15   2    3.36    1.02
  -7 -15   1   22.66    1.58
  -7 -15   0   98.27    2.63
  -7 -15  -1  134.17    2.63
  -7 -15  -2   29.87    1.58
  -7 -16   6    4.35    1.12
  -7 -16   5   15.41    1.58
  -7 -16   4    6.75    1.22
  -7 -16   3  153.20    3.36
  -7 -16   2    1.68    1.05
  -6   0  -6  300.87    5.53
  -6   0  -7   -0.23    1.19
  -6   0  -8  256.54   12.51
  -6   0  -9    1.22    1.65
  -6   0 -11    1.45    0.89
  -6   0 -12  409.51    5.53
  -6   0 -13    0.72    1.02
  -6   0 -14    5.53    1.28
  -6   0 -15   -1.22    0.96
  -6  -1  -2  300.15    3.62
  -6  -1  -4  525.63    7.21
  -6  -1  -5    1.45    1.02
  -6  -1  -6    0.23    1.02
  -6  -1  -7   36.62    2.27
  -6  -1  -8  141.87    6.03
  -6  -1  -9    4.35    1.61
  -6  -1 -11    9.16    1.35
  -6  -1 -12   87.93    2.63
  -6  -1 -13    5.07    1.15
  -6  -1 -14    2.40    1.02
  -6  -1 -15   -1.45    0.96
  -6  -2   5  205.47    2.40
  -6  -2   0   18.54    0.99
  -6  -2  -1   53.25    1.61
  -6  -2  -2   26.97    2.24
  -6  -2  -3   10.60    1.19
  -6  -2  -5   47.69    2.01
  -6  -2  -6  364.96    7.21
  -6  -2  -7  162.13    8.20
  -6  -2  -8   44.33    5.30
  -6  -2  -9    3.36    1.65
  -6  -2 -11   22.16    1.48
  -6  -2 -12   21.44    1.58
  -6  -2 -13    2.63    1.02
  -6  -2 -14   14.69    1.58
  -6  -2 -15   13.24    2.40
  -6  -3   5   29.38    1.42
  -6  -3   4  344.47    3.62
  -6  -3   3   93.46    1.75
  -6  -3   2  235.83    2.90
  -6  -3   1    0.23    0.66
  -6  -3   0   38.07    1.38
  -6  -3  -1   26.74    1.28
  -6  -3  -2    3.62    0.86
  -6  -3  -3   66.72    1.98
  -6  -3  -4    1.45    0.99
  -6  -3  -5   15.18    1.71
  -6  -3  -6    1.45    1.22
  -6  -3  -7  184.29    7.71
  -6  -3  -8   96.36    3.62
  -6  -3  -9   -0.23    2.40
  -6  -3 -10  284.96    3.85
  -6  -3 -11  143.09    2.63
  -6  -3 -12   26.02    1.61
  -6  -3 -13   19.76    1.58
  -6  -3 -14   24.07    1.65
  -6  -3 -15   49.40    1.94
  -6  -4   5  293.39    7.21
  -6  -4   4   78.05    4.08
  -6  -4   3   80.68    2.63
  -6  -4   2  316.05    9.16
  -6  -4   1   -0.49    1.09
  -6  -4   0    2.63    0.76
  -6  -4  -1   20.71    1.45
  -6  -4  -2   -0.23    0.92
  -6  -4  -3  201.15    3.62
  -6  -4  -4  146.71    4.08
  -6  -4  -5  177.04    4.35
  -6  -4  -6   42.15    3.85
  -6  -4  -7   53.98    2.90
  -6  -4  -8   -0.23    1.61
  -6  -4  -9   82.63    2.01
  -6  -4 -10    3.62    0.96
  -6  -4 -11   27.24    1.61
  -6  -4 -12   38.53    1.75
  -6  -4 -13    0.72    0.99
  -6  -4 -14   62.64    2.01
  -6  -4 -15  251.50    3.85
  -6  -5   5   27.24    1.55
  -6  -5   4  214.39    4.35
  -6  -5   3 1094.38   13.50
  -6  -5   2   19.50    2.63
  -6  -5   1  504.66    6.26
  -6  -5   0   45.78    1.68
  -6  -5  -1    2.40    0.96
  -6  -5  -2   71.30    2.14
  -6  -5  -3  253.41   14.23
  -6  -5  -4   30.59    2.27
  -6  -5  -5   31.81    2.63
  -6  -5  -6    5.07    1.55
  -6  -5  -7  555.50   11.07
  -6  -5  -8   41.43    3.62
  -6  -5  -9  417.95    5.07
  -6  -5 -10    1.94    0.92
  -6  -5 -11    6.03    1.02
  -6  -5 -12    5.53    1.05
  -6  -5 -13    2.40    1.02
  -6  -5 -14    0.96    1.02
  -6  -5 -15    6.03    1.12
  -6  -6   5  172.47    3.36
  -6  -6   4  218.01    6.75
  -6  -6   3    6.26    1.12
  -6  -6   2   44.33    3.36
  -6  -6   1   26.97    1.81
  -6  -6  -1    0.96    1.02
  -6  -6  -2   90.33    4.81
  -6  -6  -3   21.21    2.63
  -6  -6  -4   65.27    3.13
  -6  -6  -5   19.76    2.37
  -6  -6  -6   30.10    2.40
  -6  -6  -7   72.25    6.03
  -6  -6  -8   67.45    1.88
  -6  -6  -9   75.65    2.01
  -6  -6 -10   23.84    1.58
  -6  -6 -11   18.31    1.55
  -6  -6 -12   45.28    1.84
  -6  -6 -13    9.88    1.48
  -6  -6 -14   -0.49    0.99
  -6  -7   5    5.07    1.19
  -6  -7   4  204.05   13.96
  -6  -7   3  107.92    4.81
  -6  -7   2   23.84    2.11
  -6  -7   1   60.23    2.40
  -6  -7   0  127.42    3.36
  -6  -7  -1  191.50    4.58
  -6  -7  -2    2.40    1.22
  -6  -7  -3  154.88    4.08
  -6  -7  -4    2.17    1.35
  -6  -7  -5  174.18    4.81
  -6  -7  -6    0.49    1.12
  -6  -7  -7   15.18    1.75
  -6  -7  -8   48.41    1.75
  -6  -7  -9   56.12    1.84
  -6  -7 -10   23.84    1.58
  -6  -7 -11   14.95    1.48
  -6  -7 -12   13.96    1.42
  -6  -7 -13   76.37    2.11
  -6  -7 -14   10.11    1.38
  -6  -8   5  198.25    4.58
  -6  -8   4    4.35    1.25
  -6  -8   3  339.66   10.11
  -6  -8   2   67.22    2.63
  -6  -8   1    3.62    1.28
  -6  -8   0    0.49    1.12
  -6  -8  -1  379.88    7.48
  -6  -8  -2    2.40    1.28
  -6  -8  -3   52.26    2.63
  -6  -8  -4   51.54    2.40
  -6  -8  -5  526.82   10.11
  -6  -8  -6   21.44    1.84
  -6  -8  -7   89.38    2.24
  -6  -8  -8    4.58    1.12
  -6  -8  -9    0.72    1.19
  -6  -8 -10    0.23    1.12
  -6  -8 -11   25.79    1.84
  -6  -8 -12   -1.22    1.12
  -6  -8 -13    4.58    1.02
  -6  -9   5   52.99    2.90
  -6  -9   4    5.30    1.45
  -6  -9   3   49.63    2.40
  -6  -9   2   24.57    2.04
  -6  -9   1  200.20    6.98
  -6  -9   0    1.22    1.28
  -6  -9  -1   90.83    3.13
  -6  -9  -2   12.05    1.65
  -6  -9  -3    0.72    1.19
  -6  -9  -4   37.08    3.85
  -6  -9  -5   83.12    3.36
  -6  -9  -6    0.00    0.82
  -6  -9  -7    3.36    0.96
  -6  -9  -8   44.33    2.24
  -6  -9  -9    0.96    0.96
  -6  -9 -10    3.36    1.02
  -6  -9 -11   62.87    2.04
  -6  -9 -12   23.38    1.58
  -6  -9 -13   57.57    2.01
  -6 -10   5  221.37    6.98
  -6 -10   4  153.70    3.85
  -6 -10   3    0.23    1.02
  -6 -10   2    1.68    1.12
  -6 -10   1    0.72    1.12
  -6 -10   0   22.16    1.94
  -6 -10  -1  187.88    5.53
  -6 -10  -2    1.94    1.22
  -6 -10  -3    9.88    1.75
  -6 -10  -4   37.35    1.78
  -6 -10  -5    1.68    0.89
  -6 -10  -6  153.43    2.90
  -6 -10  -7  211.03    3.62
  -6 -10  -8   92.01    8.66
  -6 -10  -9   83.58    2.27
  -6 -10 -10    0.23    1.02
  -6 -10 -11    8.66    1.61
  -6 -10 -12   61.19    2.27
  -6 -11   5    4.35    1.32
  -6 -11   4   71.07    3.62
  -6 -11   3   74.69    3.13
  -6 -11   2    1.22    1.22
  -6 -11   1  220.65    5.53
  -6 -11   0    4.81    1.38
  -6 -11  -1  136.83    4.08
  -6 -11  -2  104.07    2.27
  -6 -11  -3    0.00    0.82
  -6 -11  -4   67.94    1.84
  -6 -11  -5   46.73    2.63
  -6 -11  -6    7.71    1.12
  -6 -11  -7    4.35    1.15
  -6 -11  -8    7.48    1.15
  -6 -11  -9   -0.49    0.99
  -6 -11 -10    0.23    1.02
  -6 -11 -11   45.78    1.98
  -6 -12   5   36.85    2.27
  -6 -12   4  135.15    3.85
  -6 -12   3    6.98    1.38
  -6 -12   2   84.80    2.63
  -6 -12   1   13.50    1.32
  -6 -12   0  153.70    7.21
  -6 -12  -1  119.97    3.85
  -6 -12  -2   19.50    1.38
  -6 -12  -3    0.49    0.82
  -6 -12  -4  402.30   28.91
  -6 -12  -5   11.33    1.42
  -6 -12  -6  236.06   38.53
  -6 -12  -7   24.34    1.68
  -6 -12  -8   27.47    2.37
  -6 -12  -9    9.88    1.48
  -6 -12 -10    1.68    1.02
  -6 -13   5   30.36    1.58
  -6 -13   4  677.39    8.20
  -6 -13   3    5.80    1.02
  -6 -13   2  382.77   14.46
  -6 -13   1   14.95    1.38
  -6 -13   0    7.21    2.40
  -6 -13  -1    0.72    0.92
  -6 -13  -2    1.94    0.92
  -6 -13  -3    9.39    1.32
  -6 -13  -4   29.38    2.63
  -6 -13  -5    4.81    1.05
  -6 -13  -6    1.68    1.02
  -6 -13  -7   15.41    1.65
  -6 -13  -8  290.04    4.58
  -6 -13  -9    0.96    1.02
  -6 -14   5   34.45    5.30
  -6 -14   4   -0.49    1.02
  -6 -14   3   73.47    9.16
  -6 -14   2   74.92    4.58
  -6 -14   1   80.22    3.62
  -6 -14   0   40.97    1.75
  -6 -14  -1   28.42    1.81
  -6 -14  -2   23.12    1.55
  -6 -14  -3    1.22    1.22
  -6 -14  -4  130.08    5.30
  -6 -14  -5   18.31    1.58
  -6 -14  -6    5.80    1.09
  -6 -14  -7   18.08    2.90
  -6 -14  -8   11.07    1.58
  -6 -15   5    0.72    1.58
  -6 -15   4   65.27    8.66
  -6 -15   3    1.45    1.02
  -6 -15   2    0.23    1.09
  -6 -15   1   39.02    4.08
  -6 -15   0   19.03    1.58
  -6 -15  -1   -0.23    1.71
  -6 -15  -2  142.86    9.39
  -6 -15  -3   24.07    1.58
  -6 -15  -4  137.30    2.90
  -6 -15  -5    0.96    0.99
  -6 -15  -6    0.72    0.99
  -6 -16   5    2.40    1.22
  -6 -16   4   72.98    6.03
  -6 -16   3   26.51    3.13
  -6 -16   2    0.49    1.02
  -6 -16   1   18.08    1.51
  -6 -16   0    9.88    1.58
  -6 -16  -1    9.16    1.35
  -6 -16  -2   22.66    1.58
  -6 -16  -3   32.27    1.81
  -6 -16  -4    1.45    1.02
  -6 -17   5    1.45    1.58
  -6 -17   4   54.67   16.86
  -6 -17   3  153.93   22.66
  -6 -17   2   16.14    2.24
  -6 -17   1    2.40    1.05
  -6 -17   0    2.17    0.96
  -6 -17  -1   41.20    1.88
  -5   0   4  609.22    9.88
  -5   0  -2  258.22    2.63
  -5   0  -7    0.23    0.99
  -5   0  -8    1.68    1.19
  -5   0  -9    0.72    1.28
  -5   0 -10  329.79   12.28
  -5   0 -11    0.49    1.38
  -5   0 -12  180.17    5.53
  -5   0 -14    6.49    1.22
  -5   0 -15   -0.96    0.96
  -5   0 -16    1.45    1.42
  -5   0 -17    0.00    0.99
  -5  -1   4  426.87    7.71
  -5  -1   3  103.57    3.36
  -5  -1   0   44.82    2.34
  -5  -1  -2  110.55    1.65
  -5  -1  -3   50.35    1.42
  -5  -1  -4  506.83    6.26
  -5  -1  -5   15.64    1.51
  -5  -1  -6   11.56    1.48
  -5  -1  -7  334.13   16.14
  -5  -1  -8   46.96    2.37
  -5  -1  -9  184.29    6.26
  -5  -1 -10  195.12    8.92
  -5  -1 -11   69.85    3.36
  -5  -1 -12    1.68    1.38
  -5  -1 -13    3.85    1.12
  -5  -1 -14   10.60    1.58
  -5  -1 -15   38.30    2.90
  -5  -1 -16   48.41    1.94
  -5  -1 -17    8.92    1.48
  -5  -2   4  484.93    9.65
  -5  -2   3 1186.39   36.13
  -5  -2   2   36.85    2.63
  -5  -2   1    3.62    1.75
  -5  -2  -2  165.75    2.31
  -5  -2  -3    0.49    0.72
  -5  -2  -4  693.29    8.20
  -5  -2  -5    3.36    0.96
  -5  -2  -6   25.79    5.07
  -5  -2  -7  595.25   50.58
  -5  -2  -8  363.01   11.79
  -5  -2  -9  179.94    3.85
  -5  -2 -10    0.72    1.25
  -5  -2 -11  113.72    3.62
  -5  -2 -12  196.08    3.13
  -5  -2 -13   25.79    2.01
  -5  -2 -14   52.03    2.01
  -5  -2 -15    6.49    1.19
  -5  -2 -16   19.27    5.07
  -5  -2 -17   69.39    6.49
  -5  -3   4   33.00    5.80
  -5  -3   3    0.72    1.25
  -5  -3   2  370.26    7.48
  -5  -3   1  815.90    6.75
  -5  -3   0  540.09    4.81
  -5  -3  -1 1048.11    9.65
  -5  -3  -2    9.39    2.04
  -5  -3  -3  197.30    6.26
  -5  -3  -4  179.45    3.36
  -5  -3  -5  163.08    4.08
  -5  -3  -6   12.51    1.55
  -5  -3  -7    8.66    1.38
  -5  -3  -8   87.20    2.63
  -5  -3  -9    0.23    1.02
  -5  -3 -10   41.92    2.90
  -5  -3 -11  164.30    4.35
  -5  -3 -12   73.97    2.04
  -5  -3 -13   94.19    2.37
  -5  -3 -14    6.75    1.15
  -5  -3 -15   35.17    1.81
  -5  -3 -16   14.46    1.61
  -5  -3 -17   12.28    4.35
  -5  -4   4  149.58    2.40
  -5  -4   3  133.71    2.63
  -5  -4   2  261.35    5.80
  -5  -4   1    8.66    1.02
  -5  -4   0    0.49    0.66
  -5  -4  -1  122.61    2.63
  -5  -4  -2   11.79    1.32
  -5  -4  -3    2.63    0.92
  -5  -4  -4    9.65    1.32
  -5  -4  -5  228.35    4.35
  -5  -4  -6    0.23    1.05
  -5  -4  -7  114.90    2.40
  -5  -4  -8   10.11    1.45
  -5  -4  -9  139.73    3.36
  -5  -4 -10   69.39    2.63
  -5  -4 -11   10.11    1.84
  -5  -4 -12  112.50    2.40
  -5  -4 -13   15.41    1.58
  -5  -4 -14    0.72    1.05
  -5  -4 -15   13.24    1.61
  -5  -4 -16   40.97    1.91
  -5  -4 -17    0.72    1.02
  -5  -5   4   96.36    3.13
  -5  -5   3  288.36    5.30
  -5  -5   2   17.82    1.38
  -5  -5   1  155.87    4.08
  -5  -5   0  399.63    4.81
  -5  -5  -1    4.58    0.92
  -5  -5  -2  137.30    3.85
  -5  -5  -3   96.13    2.63
  -5  -5  -4   55.39    2.21
  -5  -5  -5   61.42    5.30
  -5  -5  -6    8.92    1.65
  -5  -5  -7  124.55    3.13
  -5  -5  -8    6.49    1.28
  -5  -5  -9  182.61    3.62
  -5  -5 -10  113.72    3.36
  -5  -5 -11  127.91    2.63
  -5  -5 -12   85.03    2.24
  -5  -5 -13    2.90    1.05
  -5  -5 -14   19.27    1.65
  -5  -5 -15   14.95    1.61
  -5  -5 -16    2.63    1.05
  -5  -5 -17    1.45    1.02
  -5  -6   4  585.37    7.21
  -5  -6   3   15.41    1.61
  -5  -6   2  189.33    4.08
  -5  -6   1    0.72    0.86
  -5  -6   0   98.27    2.40
  -5  -6  -1  327.61    6.75
  -5  -6  -2    6.26    1.12
  -5  -6  -3  120.93    4.35
  -5  -6  -4   31.81    2.27
  -5  -6  -5    6.98    1.28
  -5  -6  -6  226.67    4.58
  -5  -6  -7   53.98    2.40
  -5  -6  -8  240.41    4.35
  -5  -6  -9   66.26    2.63
  -5  -6 -10   58.29    2.40
  -5  -6 -11    5.07    1.02
  -5  -6 -12   59.01    2.01
  -5  -6 -13   11.07    1.58
  -5  -6 -14    1.22    1.05
  -5  -6 -15   80.95    2.34
  -5  -6 -16   28.19    1.75
  -5  -7   4   82.86    2.40
  -5  -7   3  185.01    6.03
  -5  -7   2   28.19    2.63
  -5  -7   1 1016.79   12.78
  -5  -7   0  443.73    6.49
  -5  -7  -1  296.06    6.03
  -5  -7  -2   18.54    1.81
  -5  -7  -3   -0.23    0.92
  -5  -7  -4  190.05    4.35
  -5  -7  -5    0.96    1.02
  -5  -7  -6   27.24    1.81
  -5  -7  -7   53.25    2.14
  -5  -7  -8  135.88    3.36
  -5  -7  -9   31.09    2.27
  -5  -7 -10  161.40    2.90
  -5  -7 -12   81.18    2.27
  -5  -7 -13  153.93    3.13
  -5  -7 -14   74.20    2.31
  -5  -7 -15   22.39    1.68
  -5  -7 -16   26.25    1.65
  -5  -8   4  271.96    5.07
  -5  -8   3   44.10    2.21
  -5  -8   2  107.19    2.63
  -5  -8   1  146.71    3.36
  -5  -8   0   78.28    3.85
  -5  -8  -1   67.68    3.85
  -5  -8  -2   48.90    3.13
  -5  -8  -3    1.22    1.25
  -5  -8  -4  169.83    5.80
  -5  -8  -5   44.33    2.01
  -5  -8  -6    2.63    1.09
  -5  -8  -7  157.32    5.80
  -5  -8  -8  184.75    4.58
  -5  -8  -9  242.58    7.21
  -5  -8 -10    0.49    0.96
  -5  -8 -11   25.79    1.68
  -5  -8 -12   18.08    1.58
  -5  -8 -13    1.45    1.02
  -5  -8 -14    6.49    1.15
  -5  -8 -15   47.69    1.94
  -5  -9   4  113.72    3.62
  -5  -9   3   92.74    3.36
  -5  -9   2  170.06    6.49
  -5  -9   1   56.61    2.63
  -5  -9   0    4.35    1.09
  -5  -9  -1   87.93    4.08
  -5  -9  -2    5.53    1.65
  -5  -9  -3   21.44    1.75
  -5  -9  -4   81.41    3.36
  -5  -9  -5  224.50    6.49
  -5  -9  -6   25.52    2.17
  -5  -9  -7  160.45    4.35
  -5  -9  -8  123.10    3.36
  -5  -9  -9   22.66    1.61
  -5  -9 -10  137.06    2.90
  -5  -9 -11   51.31    2.04
  -5  -9 -12    0.23    1.22
  -5  -9 -13    1.22    1.25
  -5  -9 -14    1.22    1.09
  -5  -9 -15   51.31    1.98
  -5 -10   4  492.64   10.60
  -5 -10   3  771.57   10.83
  -5 -10   2  297.74    6.03
  -5 -10   1    7.21    1.28
  -5 -10   0    1.45    0.99
  -5 -10  -1  356.99    7.71
  -5 -10  -2  100.21    2.90
  -5 -10  -3  152.48    3.85
  -5 -10  -4    1.45    1.12
  -5 -10  -5   31.55    2.27
  -5 -10  -6  160.68    4.81
  -5 -10  -7   68.89    2.63
  -5 -10  -8  108.87    6.26
  -5 -10  -9    6.98    1.15
  -5 -10 -10   37.35    2.63
  -5 -10 -11   35.17    2.63
  -5 -10 -12    3.36    1.09
  -5 -10 -13   20.71    1.68
  -5 -10 -14   17.36    1.65
  -5 -11   4   20.95    1.81
  -5 -11   3   23.38    1.75
  -5 -11   2   17.36    1.65
  -5 -11   1   11.56    1.58
  -5 -11   0  124.06    3.36
  -5 -11  -1  124.06    3.62
  -5 -11  -2   55.89    2.34
  -5 -11  -3   20.22    1.94
  -5 -11  -4   18.80    2.01
  -5 -11  -5   31.81    2.40
  -5 -11  -6   50.09    1.91
  -5 -11  -7   42.15    2.37
  -5 -11  -8    4.35    1.09
  -5 -11  -9  123.56    2.90
  -5 -11 -10   56.84    2.24
  -5 -11 -11  126.95    5.53
  -5 -11 -12   30.36    4.08
  -5 -11 -13   11.56    1.84
  -5 -12   4    1.45    1.09
  -5 -12   3   65.04    3.13
  -5 -12   2   12.51    1.88
  -5 -12   1   33.95    2.90
  -5 -12   0    5.80    1.38
  -5 -12  -1   85.53    2.90
  -5 -12  -2   49.40    2.40
  -5 -12  -3    0.23    1.22
  -5 -12  -4   27.96    2.01
  -5 -12  -5    6.98    1.12
  -5 -12  -6    4.35    1.05
  -5 -12  -7   15.64    1.75
  -5 -12  -8   -0.49    1.58
  -5 -12  -9   11.79    3.36
  -5 -12 -10   13.50    6.03
  -5 -12 -11   79.27    2.37
  -5 -12 -12   28.65    1.91
  -5 -13   4   34.68    2.24
  -5 -13   3   14.23    1.91
  -5 -13   2  230.07    6.49
  -5 -13   1   30.59    2.90
  -5 -13   0   29.64    2.27
  -5 -13  -1   -0.23    1.19
  -5 -13  -2    7.71    1.12
  -5 -13  -3    2.17    0.96
  -5 -13  -4    0.72    0.92
  -5 -13  -5   48.67    2.40
  -5 -13  -6    3.13    1.05
  -5 -13  -7   42.88    1.91
  -5 -13  -8    4.81    1.12
  -5 -13  -9   16.37    2.63
  -5 -13 -10    3.13    1.65
  -5 -13 -11   -0.23    1.09
  -5 -13 -12    3.13    1.19
  -5 -14   4  240.64   28.91
  -5 -14   3   48.18    2.37
  -5 -14   2  259.21   26.51
  -5 -14   1    0.72    1.22
  -5 -14   0    6.98    1.81
  -5 -14  -1    0.72    1.02
  -5 -14  -2    0.00    0.92
  -5 -14  -3    3.85    1.02
  -5 -14  -4    0.72    0.96
  -5 -14  -5   39.26    1.84
  -5 -14  -6   26.25    1.75
  -5 -14  -7  106.24    2.63
  -5 -14  -8   86.71    3.62
  -5 -14  -9    1.22    1.12
  -5 -14 -10   11.79    1.65
  -5 -15   4  110.82    9.39
  -5 -15   3   10.83    1.48
  -5 -15   2   84.08    3.36
  -5 -15   1  175.86   10.37
  -5 -15   0  288.82   24.07
  -5 -15  -1  150.30    4.08
  -5 -15  -2  195.85   10.37
  -5 -15  -3   36.39    2.90
  -5 -15  -4    6.49    1.15
  -5 -15  -5   49.14    1.98
  -5 -15  -6   14.46    2.40
  -5 -15  -7    1.22    1.02
  -5 -15  -8   10.11    2.17
  -5 -15  -9   34.94    1.78
  -5 -16   4  126.00    2.90
  -5 -16   3  157.78   11.33
  -5 -16   2  135.39    9.88
  -5 -16   1    4.35    1.19
  -5 -16   0    2.90    1.09
  -5 -16  -1   52.99    2.63
  -5 -16  -2    0.23    1.22
  -5 -16  -3   60.96    2.07
  -5 -16  -4   81.18    2.63
  -5 -16  -5   47.69    1.98
  -5 -16  -6   85.53    4.58
  -5 -16  -7   33.95    1.75
  -5 -17   4   97.32    2.90
  -5 -17   3   81.90    3.36
  -5 -17   2    1.68    1.12
  -5 -17   1  118.29    9.39
  -5 -17   0   26.02    1.71
  -5 -17  -1    0.49    1.02
  -5 -17  -2    6.26    1.32
  -5 -17  -3   23.12    1.65
  -5 -17  -4   22.16    3.85
  -5 -17  -5   11.33    1.48
  -5 -18   4   21.44    1.84
  -5 -18   3   12.05    2.63
  -5 -18   2    0.00    1.51
  -5 -18   1   36.39    3.13
  -5 -18   0    7.21    4.08
  -5 -18  -1    2.17    1.35
  -5 -18  -2    0.49    1.75
  -4   0   0  853.25   43.37
  -4   0  -1    1.68    1.12
  -4   0  -2  225.72    6.03
  -4   0  -3    0.23    0.96
  -4   0  -4 3220.72   77.09
  -4   0  -8    2.17    0.99
  -4   0  -9    0.00    1.02
  -4   0 -10   13.96    1.84
  -4   0 -11    0.49    1.22
  -4   0 -12   52.99    2.90
  -4   0 -13    0.49    1.55
  -4   0 -14  287.14   10.11
  -4   0 -16   89.61    2.63
  -4   0 -17   -0.49    1.09
  -4   0 -18   26.51    2.07
  -4   0 -19   -0.96    1.05
  -4  -1   3 2097.20   52.99
  -4  -1   2   79.00    2.40
  -4  -1   1  611.85    9.88
  -4  -1   0 1242.77   24.07
  -4  -1  -1   68.66    5.53
  -4  -1  -2    5.30    1.12
  -4  -1  -3  123.10    4.35
  -4  -1  -4   58.06    2.90
  -4  -1  -5  283.05    4.08
  -4  -1  -6   48.90    1.91
  -4  -1  -7  148.16    3.85
  -4  -1  -8   59.74    2.31
  -4  -1  -9  567.29    9.39
  -4  -1 -10   66.26    3.13
  -4  -1 -11  184.52    5.07
  -4  -1 -12  216.79    5.80
  -4  -1 -13    4.58    1.65
  -4  -1 -14   73.24    2.17
  -4  -1 -16    0.00    1.12
  -4  -1 -17   14.69    2.63
  -4  -1 -18   37.35    1.94
  -4  -1 -19   29.64    2.40
  -4  -2   3  436.49   11.79
  -4  -2   2 1579.54   22.66
  -4  -2   1  125.01    4.81
  -4  -2   0    1.22    1.42
  -4  -2  -1 2122.99   36.13
  -4  -2  -2    4.35    0.79
  -4  -2  -3   54.67    1.98
  -4  -2  -4  297.74    5.80
  -4  -2  -5    6.98    1.02
  -4  -2  -6    3.13    0.92
  -4  -2  -7    3.62    1.05
  -4  -2  -8   18.54    1.42
  -4  -2  -9    3.85    1.22
  -4  -2 -10   34.94    2.27
  -4  -2 -11  260.89    6.03
  -4  -2 -12   62.41    2.90
  -4  -2 -13  171.02    4.81
  -4  -2 -14   50.35    1.94
  -4  -2 -15   13.96    1.98
  -4  -2 -16   -0.23    1.12
  -4  -2 -17    5.07    1.22
  -4  -2 -19    0.00    1.12
  -4  -3   3  180.67    5.07
  -4  -3   2  210.77    4.35
  -4  -3   1  390.02   11.07
  -4  -3   0  247.88    5.07
  -4  -3  -1   73.97    2.01
  -4  -3  -2  380.60    6.26
  -4  -3  -3  230.79    6.26
  -4  -3  -4    0.72    0.96
  -4  -3  -5   38.07    1.68
  -4  -3  -6  115.63    3.13
  -4  -3  -7   88.65    2.63
  -4  -3  -8   47.69    1.88
  -4  -3  -9   12.28    1.71
  -4  -3 -10  220.91    5.30
  -4  -3 -11   71.07    2.63
  -4  -3 -12   12.78    1.98
  -4  -3 -13    0.96    2.01
  -4  -3 -14   19.76    1.65
  -4  -3 -15    4.35    1.12
  -4  -3 -16    2.63    1.12
  -4  -3 -17   91.29    2.40
  -4  -3 -18    4.81    1.75
  -4  -3 -19   64.81    5.30
  -4  -4   3    9.65    1.28
  -4  -4   2   46.96    2.90
  -4  -4   1  106.24    3.13
  -4  -4   0  143.09    3.36
  -4  -4  -1  413.86   10.37
  -4  -4  -2  251.50    5.53
  -4  -4  -3  533.11   11.56
  -4  -4  -4   16.14    1.42
  -4  -4  -5   72.25    2.27
  -4  -4  -6  329.06    7.48
  -4  -4  -7  342.56    6.98
  -4  -4  -8   66.49    2.90
  -4  -4  -9   92.74    2.63
  -4  -4 -10   11.56    2.21
  -4  -4 -11   11.07    1.65
  -4  -4 -12    7.71    2.63
  -4  -4 -13   57.34    2.90
  -4  -4 -14  129.13    2.63
  -4  -4 -15   72.02    2.24
  -4  -4 -16    7.71    1.25
  -4  -4 -17   15.18    1.71
  -4  -4 -18   93.69    2.63
  -4  -4 -19   12.28    4.08
  -4  -5   3  567.06   15.18
  -4  -5   2  115.13    3.13
  -4  -5   1  997.29   11.56
  -4  -5   0   18.08    2.37
  -4  -5  -1  610.17   10.60
  -4  -5  -2   19.50    1.88
  -4  -5  -3   45.05    1.84
  -4  -5  -4   25.79    2.24
  -4  -5  -5   99.26    3.13
  -4  -5  -6   89.12    3.13
  -4  -5  -7   64.09    2.07
  -4  -5  -8  143.32    2.90
  -4  -5  -9   51.08    2.07
  -4  -5 -10   30.10    1.84
  -4  -5 -11   67.94    2.40
  -4  -5 -12    0.49    1.45
  -4  -5 -13   71.79    2.90
  -4  -5 -14   15.18    1.65
  -4  -5 -15   10.11    1.61
  -4  -5 -16   -0.23    1.12
  -4  -5 -17   28.91    1.84
  -4  -5 -18   37.58    1.84
  -4  -6   3    7.21    1.65
  -4  -6   2    5.30    1.22
  -4  -6   1  252.46    8.43
  -4  -6   0 1757.07   31.32
  -4  -6  -1  620.05    6.98
  -4  -6  -2  656.67    7.71
  -4  -6  -3    6.75    1.58
  -4  -6  -4   16.63    1.71
  -4  -6  -5   32.50    1.91
  -4  -6  -6   21.67    1.48
  -4  -6  -7  139.24    5.07
  -4  -6  -8   85.53    1.75
  -4  -6  -9  104.56    2.63
  -4  -6 -10  125.74    3.36
  -4  -6 -11    6.49    1.38
  -4  -6 -12  728.46   16.14
  -4  -6 -13    5.53    1.12
  -4  -6 -14   31.55    1.88
  -4  -6 -15   25.06    1.84
  -4  -6 -16    1.94    1.12
  -4  -6 -17    9.88    1.58
  -4  -6 -18    0.49    1.09
  -4  -7   3   10.83    1.38
  -4  -7   2  642.45    7.48
  -4  -7   1    0.00    0.86
  -4  -7   0   50.09    1.94
  -4  -7  -1  325.44    4.81
  -4  -7  -2    6.03    1.02
  -4  -7  -3  621.27    8.43
  -4  -7  -4  288.59    8.43
  -4  -7  -5    5.80    1.02
  -4  -7  -6    1.22    0.89
  -4  -7  -7   58.78    3.13
  -4  -7  -8  476.00    7.48
  -4  -7  -9   49.40    2.24
  -4  -7 -10   53.98    2.40
  -4  -7 -11   98.53    2.90
  -4  -7 -12   13.96    1.84
  -4  -7 -13    2.40    1.05
  -4  -7 -14    1.94    1.12
  -4  -7 -15   32.77    1.91
  -4  -7 -16   45.51    2.04
  -4  -7 -17   57.34    2.14
  -4  -7 -18   25.79    1.71
  -4  -8   3    4.81    1.12
  -4  -8   2  171.28    5.53
  -4  -8   1    0.49    0.96
  -4  -8   0   11.07    1.51
  -4  -8  -1  255.09    6.26
  -4  -8  -2   13.96    1.71
  -4  -8  -3  753.76   10.11
  -4  -8  -4  130.58    4.35
  -4  -8  -5  189.10    4.08
  -4  -8  -6   40.24    1.94
  -4  -8  -7  131.04    4.35
  -4  -8  -8   10.83    1.58
  -4  -8  -9  108.41    3.36
  -4  -8 -10    0.72    1.15
  -4  -8 -11    1.68    1.22
  -4  -8 -12    1.45    1.02
  -4  -8 -14  101.66    2.63
  -4  -8 -15  346.15    5.30
  -4  -8 -16   12.51    1.58
  -4  -8 -17   17.09    1.58
  -4  -9   3    2.17    1.02
  -4  -9   2  270.28    6.26
  -4  -9   1   76.83    2.63
  -4  -9   0  474.33    6.49
  -4  -9  -1   34.45    1.94
  -4  -9  -2    0.23    0.89
  -4  -9  -3   29.87    1.75
  -4  -9  -4    6.98    1.15
  -4  -9  -5    2.40    1.02
  -4  -9  -6    0.96    1.12
  -4  -9  -7  138.51    3.62
  -4  -9  -8   14.95    1.84
  -4  -9  -9  162.36    3.85
  -4  -9 -10  215.61    4.58
  -4  -9 -11  385.90    5.30
  -4  -9 -12  143.32    3.62
  -4  -9 -13    2.17    1.09
  -4  -9 -14    0.00    1.02
  -4  -9 -15    1.94    1.19
  -4  -9 -16    7.48    1.45
  -4  -9 -17    1.94    1.09
  -4 -10   3   83.58    3.85
  -4 -10   2    0.23    0.82
  -4 -10   1   28.65    1.58
  -4 -10   0    0.96    0.89
  -4 -10  -1    1.22    1.22
  -4 -10  -2   84.80    2.90
  -4 -10  -3   88.16    2.63
  -4 -10  -4  332.68    6.26
  -4 -10  -5    0.49    0.99
  -4 -10  -6   82.13    3.85
  -4 -10  -7    5.07    1.28
  -4 -10  -8    0.00    1.12
  -4 -10  -9   53.25    2.63
  -4 -10 -10   18.54    1.68
  -4 -10 -11   73.24    2.37
  -4 -10 -12   55.89    3.36
  -4 -10 -13    2.40    1.15
  -4 -10 -14   23.12    1.84
  -4 -10 -15  184.03    3.62
  -4 -10 -16   14.95    1.65
  -4 -11   3  730.64   10.83
  -4 -11   2    0.96    0.92
  -4 -11   1  325.93    6.26
  -4 -11   0    4.08    1.02
  -4 -11  -1   26.02    1.68
  -4 -11  -2    0.23    0.96
  -4 -11  -3  129.36    4.08
  -4 -11  -4    2.90    1.12
  -4 -11  -5  103.11    3.62
  -4 -11  -6   58.52    3.62
  -4 -11  -7  248.11    6.26
  -4 -11  -8   13.96    1.91
  -4 -11  -9  143.59    4.58
  -4 -11 -10   63.82    2.11
  -4 -11 -11    7.94    1.88
  -4 -11 -12    1.45    1.12
  -4 -11 -13   15.41    3.13
  -4 -11 -14   16.86    1.84
  -4 -11 -15   59.74    2.27
  -4 -12   3   40.24    2.63
  -4 -12   2  163.81    5.53
  -4 -12   1    9.88    1.51
  -4 -12   0  200.43    4.81
  -4 -12  -1  110.32    4.58
  -4 -12  -2   11.33    1.61
  -4 -12  -3    0.49    1.09
  -4 -12  -4   77.33    2.90
  -4 -12  -5   39.98    2.31
  -4 -12  -6    0.96    1.19
  -4 -12  -7  113.95    3.36
  -4 -12  -8    2.17    1.02
  -4 -12  -9   66.72    2.37
  -4 -12 -10   61.19    2.34
  -4 -12 -11   70.84    2.90
  -4 -12 -12   87.93    2.90
  -4 -12 -13   61.19    3.36
  -4 -12 -14   72.52    2.40
  -4 -13   3   45.05    2.27
  -4 -13   2   12.51    1.65
  -4 -13   1   27.96    2.11
  -4 -13   0  173.92    5.07
  -4 -13  -1    6.98    1.35
  -4 -13  -2  216.33    5.80
  -4 -13  -3    0.96    1.12
  -4 -13  -4  143.59    3.85
  -4 -13  -5    0.49    1.19
  -4 -13  -6   87.93    3.13
  -4 -13  -7    3.36    1.09
  -4 -13  -8  119.71    4.08
  -4 -13  -9   54.44    2.21
  -4 -13 -10  110.82    2.90
  -4 -13 -11   55.66    2.31
  -4 -13 -12   24.57    3.13
  -4 -13 -13    0.96    1.22
  -4 -14   3   17.59    2.11
  -4 -14   2   39.02    3.13
  -4 -14   1  104.79    3.85
  -4 -14   0   61.91    3.36
  -4 -14  -1  347.14    8.66
  -4 -14  -2    0.23    1.19
  -4 -14  -3   59.25    2.04
  -4 -14  -4    3.13    1.02
  -4 -14  -5    1.68    1.02
  -4 -14  -6  133.21    6.75
  -4 -14  -7   25.52    1.75
  -4 -14  -8   10.37    1.58
  -4 -14  -9   -0.23    1.22
  -4 -14 -10   33.23    3.13
  -4 -14 -11   97.55    2.63
  -4 -14 -12   72.25    2.90
  -4 -15   3   69.85    2.37
  -4 -15   2   73.70    2.31
  -4 -15   1   21.67    1.75
  -4 -15   0   78.54    2.90
  -4 -15  -1   38.79    2.90
  -4 -15  -2   49.14    2.11
  -4 -15  -3    0.72    1.05
  -4 -15  -4    1.22    1.02
  -4 -15  -5   16.63    1.65
  -4 -15  -6   53.25    2.11
  -4 -15  -7   32.04    1.84
  -4 -15  -8   61.19    2.17
  -4 -15  -9   11.33    2.31
  -4 -15 -10    7.94    1.28
  -4 -15 -11   -0.23    1.12
  -4 -16   3   28.65    1.88
  -4 -16   2   42.65    3.36
  -4 -16   1    6.75    1.25
  -4 -16   0  110.55    5.80
  -4 -16  -1    0.00    1.15
  -4 -16  -2  177.54    6.75
  -4 -16  -3   95.41    2.90
  -4 -16  -4  113.45    3.62
  -4 -16  -5    3.13    1.15
  -4 -16  -6    9.39    1.58
  -4 -16  -7    9.88    1.58
  -4 -16  -8    7.94    1.38
  -4 -16  -9    1.45    1.12
  -4 -17   3   35.67    3.36
  -4 -17   2   77.33    2.40
  -4 -17   1   82.13    7.21
  -4 -17   0   40.24    2.40
  -4 -17  -1  122.38    6.26
  -4 -17  -2   23.12    2.31
  -4 -17  -3   73.70    4.35
  -4 -17  -4   25.79    1.78
  -4 -17  -5   13.01    1.61
  -4 -17  -6   -0.23    1.05
  -4 -17  -7   65.04    2.27
  -4 -17  -8   12.28    2.31
  -4 -18   3    0.96    2.31
  -4 -18   2   35.17    6.03
  -4 -18   1   15.18    1.78
  -4 -18   0   71.07    6.26
  -4 -18  -1    0.49    1.15
  -4 -18  -2   10.11    1.55
  -4 -18  -3  138.51    3.13
  -4 -18  -4   59.01    2.21
  -4 -18  -5   71.79    3.62
  -4 -18  -6   13.96    5.30
  -4 -19   3    6.03    1.48
  -4 -19   2  140.69    3.36
  -4 -19   1    2.17    1.61
  -4 -19   0   12.28    2.90
  -4 -19  -1    1.45    1.45
  -4 -19  -2    2.63    1.51
  -4 -19  -3    0.49    0.96
  -3   0   0  943.64   15.41
  -3   0  -1    0.00    0.99
  -3   0  -2    4.81    2.27
  -3   0  -3    0.49    1.22
  -3   0  -4  197.76    8.20
  -3   0  -5   -0.23    2.21
  -3   0  -6   17.59    2.90
  -3   0  -7    2.17    2.90
  -3   0  -9   -1.22    0.86
  -3   0 -10  133.21    8.43
  -3   0 -11    0.23    1.12
  -3   0 -12   70.84    4.35
  -3   0 -13    0.23    1.25
  -3   0 -14  175.37    7.71
  -3   0 -15    0.72    1.65
  -3   0 -17    0.23    1.22
  -3   0 -18  247.39    4.35
  -3   0 -19   -0.49    1.25
  -3   0 -20    5.80    1.22
  -3  -1   2 1377.83   40.84
  -3  -1   1 1319.73   18.61
  -3  -1   0 1046.39   29.47
  -3  -1  -1  460.92    7.48
  -3  -1  -2   58.52    2.90
  -3  -1  -3   62.64    4.35
  -3  -1  -4 1044.75   16.63
  -3  -1  -5  516.94   13.01
  -3  -1  -6  519.61   14.46
  -3  -1  -7  549.71   13.24
  -3  -1  -8  137.06    3.13
  -3  -1  -9    8.92    1.28
  -3  -1 -10   84.80    2.90
  -3  -1 -11   19.03    1.94
  -3  -1 -12    2.40    1.28
  -3  -1 -13   94.19    3.85
  -3  -1 -14  483.48    9.65
  -3  -1 -15    1.94    1.42
  -3  -1 -16   88.65    2.63
  -3  -1 -17  151.29    3.13
  -3  -1 -18    4.58    1.58
  -3  -1 -19   67.45    3.13
  -3  -1 -20   49.40    4.08
  -3  -2   2 2028.83   24.96
  -3  -2   1  519.01    7.71
  -3  -2   0   70.54    3.39
  -3  -2  -1  242.09    7.71
  -3  -2  -2   -0.23    1.35
  -3  -2  -3  729.65   21.93
  -3  -2  -4    0.00    0.86
  -3  -2  -5   52.76    2.63
  -3  -2  -6   94.68    3.36
  -3  -2  -7  128.40    4.35
  -3  -2  -8  197.30    3.85
  -3  -2  -9    8.66    1.88
  -3  -2 -10  117.07    3.36
  -3  -2 -11    2.63    1.22
  -3  -2 -12  157.05    3.85
  -3  -2 -13  128.63    3.62
  -3  -2 -14    3.36    1.35
  -3  -2 -15   17.36    2.63
  -3  -2 -16   36.62    1.94
  -3  -2 -17   46.01    5.80
  -3  -2 -18   59.51    2.21
  -3  -2 -19   47.23    4.08
  -3  -2 -20   17.82    1.84
  -3  -3   2  471.66   10.11
  -3  -3   1  797.59   11.56
  -3  -3   0  652.59   11.07
  -3  -3  -1 2606.43   38.53
  -3  -3  -2   74.69    3.13
  -3  -3  -3   78.77    2.24
  -3  -3  -4    0.72    0.82
  -3  -3  -5  213.90    4.35
  -3  -3  -6    6.75    1.19
  -3  -3  -7   27.96    2.17
  -3  -3  -8    9.16    1.35
  -3  -3  -9   19.99    1.75
  -3  -3 -10   20.22    1.84
  -3  -3 -11  531.89   13.01
  -3  -3 -12  122.61    3.62
  -3  -3 -13   27.96    2.14
  -3  -3 -14   49.63    2.40
  -3  -3 -15   21.44    2.27
  -3  -3 -16   36.62    1.94
  -3  -3 -17   35.17    3.13
  -3  -3 -18   13.50    3.85
  -3  -3 -19    0.96    1.75
  -3  -3 -20   41.66    2.01
  -3  -4   2   68.17    3.85
  -3  -4   1  261.85    9.88
  -3  -4   0   39.98    2.90
  -3  -4  -1 1145.92   19.76
  -3  -4  -2 1059.20   16.63
  -3  -4  -3 1143.28   17.09
  -3  -4  -4 2173.80   45.78
  -3  -4  -5  596.93   12.78
  -3  -4  -6   57.57    2.40
  -3  -4  -7   79.00    2.40
  -3  -4  -8  336.54    5.53
  -3  -4  -9    2.90    0.86
  -3  -4 -10    2.40    0.86
  -3  -4 -11   71.79    2.40
  -3  -4 -12  135.39    3.62
  -3  -4 -13  110.09    3.13
  -3  -4 -14  156.82    3.85
  -3  -4 -15  392.88    7.94
  -3  -4 -16   92.74    2.90
  -3  -4 -17    2.90    1.19
  -3  -4 -18    6.75    1.28
  -3  -4 -19   98.53    3.36
  -3  -4 -20    3.36    1.25
  -3  -5   2   40.24    3.62
  -3  -5   1   10.83    1.65
  -3  -5   0 1099.68   18.54
  -3  -5  -1  852.29   20.95
  -3  -5  -2    2.17    0.96
  -3  -5  -3    6.49    1.45
  -3  -5  -4  103.34    3.36
  -3  -5  -5   31.32    2.11
  -3  -5  -6   87.20    3.36
  -3  -5  -7    8.92    1.28
  -3  -5  -8   -0.23    1.02
  -3  -5  -9  194.63    3.36
  -3  -5 -10   18.31    1.68
  -3  -5 -11  334.59    5.53
  -3  -5 -12  171.02    3.36
  -3  -5 -13   19.03    1.78
  -3  -5 -14   -0.72    1.12
  -3  -5 -15   98.99    2.63
  -3  -5 -16    0.49    1.12
  -3  -5 -17   27.70    1.94
  -3  -5 -18   13.73    1.75
  -3  -5 -19   17.82    1.71
  -3  -5 -20    7.94    1.48
  -3  -6   2  260.89    7.21
  -3  -6   1  131.76    4.08
  -3  -6   0    0.72    1.09
  -3  -6  -1  417.71    8.43
  -3  -6  -2 1171.70   21.44
  -3  -6  -3   13.24    1.78
  -3  -6  -4  129.36    3.85
  -3  -6  -5    3.62    1.02
  -3  -6  -6  169.11    4.35
  -3  -6  -7   37.81    2.01
  -3  -6  -8   73.24    2.27
  -3  -6  -9   59.74    2.01
  -3  -6 -10  205.23    3.36
  -3  -6 -11    9.88    1.35
  -3  -6 -12    1.22    0.99
  -3  -6 -13   16.63    1.81
  -3  -6 -14  200.43    4.35
  -3  -6 -15   78.77    3.62
  -3  -6 -16   93.96    2.63
  -3  -6 -17    1.68    1.19
  -3  -6 -18   78.28    2.40
  -3  -6 -19   40.24    2.01
  -3  -7   2  121.16    4.08
  -3  -7   1    1.94    1.05
  -3  -7   0   72.02    3.13
  -3  -7  -1  146.45    4.58
  -3  -7  -2   72.02    3.62
  -3  -7  -3  437.21    8.43
  -3  -7  -4   57.57    2.63
  -3  -7  -5    4.81    1.12
  -3  -7  -6  338.22    6.26
  -3  -7  -7    0.23    0.86
  -3  -7  -8   21.44    1.65
  -3  -7  -9  131.53    2.90
  -3  -7 -10    1.94    0.96
  -3  -7 -11   59.01    2.11
  -3  -7 -12    6.98    1.22
  -3  -7 -13   24.57    1.88
  -3  -7 -14   94.19    3.13
  -3  -7 -15  131.99    3.13
  -3  -7 -16    0.72    1.15
  -3  -7 -17  106.96    2.90
  -3  -7 -18   86.97    2.63
  -3  -7 -19    1.68    1.55
  -3  -8   2  181.62    5.30
  -3  -8   1    0.49    1.02
  -3  -8   0  103.57    3.62
  -3  -8  -1   17.09    1.65
  -3  -8  -2  105.75    2.63
  -3  -8  -3  369.04    5.80
  -3  -8  -4  383.50    7.48
  -3  -8  -5  258.95    5.07
  -3  -8  -6    1.94    1.02
  -3  -8  -7  302.32    5.53
  -3  -8  -8  253.91    4.08
  -3  -8  -9   35.90    1.84
  -3  -8 -10    0.49    0.96
  -3  -8 -11  264.51    6.26
  -3  -8 -12    3.85    1.19
  -3  -8 -13  117.07    4.35
  -3  -8 -14   28.91    2.63
  -3  -8 -15   11.79    1.65
  -3  -8 -16   60.96    2.90
  -3  -8 -17    2.90    1.25
  -3  -8 -18   13.96    4.81
  -3  -9   2    3.62    1.02
  -3  -9   1  528.99    7.48
  -3  -9   0  445.90    8.66
  -3  -9  -1  340.13    6.49
  -3  -9  -2   95.41    3.13
  -3  -9  -3  721.48   10.60
  -3  -9  -4  253.41    4.58
  -3  -9  -5  378.43    6.26
  -3  -9  -6  340.13    6.26
  -3  -9  -7  139.96    3.62
  -3  -9  -8  104.30    2.63
  -3  -9  -9  156.59    4.08
  -3  -9 -10   26.51    2.17
  -3  -9 -11   98.99    2.63
  -3  -9 -12   75.15    2.40
  -3  -9 -13   27.24    2.40
  -3  -9 -14   22.66    2.27
  -3  -9 -15  187.88    3.62
  -3  -9 -16   59.51    2.27
  -3  -9 -17  140.92    6.26
  -3  -9 -18   30.82    2.40
  -3 -10   2    1.94    1.02
  -3 -10   1   30.82    1.94
  -3 -10   0   35.17    2.01
  -3 -10  -1  208.86    5.07
  -3 -10  -2   23.38    1.78
  -3 -10  -3    3.36    0.92
  -3 -10  -4    0.49    0.86
  -3 -10  -5   33.72    2.21
  -3 -10  -6   13.96    1.75
  -3 -10  -7  661.97    9.16
  -3 -10  -8   31.09    2.11
  -3 -10  -9  200.66    4.35
  -3 -10 -10   10.11    1.94
  -3 -10 -11   11.07    1.94
  -3 -10 -12   17.82    2.04
  -3 -10 -13   31.32    1.94
  -3 -10 -14   34.22    2.01
  -3 -10 -15   11.33    1.71
  -3 -10 -16   11.33    1.75
  -3 -10 -17    6.75    1.28
  -3 -11   2  111.54    3.85
  -3 -11   1   44.82    2.11
  -3 -11   0  453.35    7.94
  -3 -11  -1   63.10    2.90
  -3 -11  -2    6.98    1.19
  -3 -11  -3  352.41    5.80
  -3 -11  -4   15.91    1.61
  -3 -11  -5   58.29    2.90
  -3 -11  -6   17.36    1.94
  -3 -11  -7  156.33    4.08
  -3 -11  -8    1.45    1.12
  -3 -11  -9   82.13    2.90
  -3 -11 -10    9.88    1.65
  -3 -11 -11   29.87    2.40
  -3 -11 -12  121.16    3.36
  -3 -11 -13   33.72    2.63
  -3 -11 -14   18.80    1.81
  -3 -11 -15   52.53    3.62
  -3 -11 -16    0.00    1.19
  -3 -11 -17   18.54    3.62
  -3 -12   2  103.34    3.85
  -3 -12   1    8.92    1.25
  -3 -12   0   71.53    2.63
  -3 -12  -1  240.64    6.03
  -3 -12  -2   83.58    2.63
  -3 -12  -3  207.41    5.80
  -3 -12  -4  596.21   12.51
  -3 -12  -5   19.03    1.78
  -3 -12  -6   21.93    2.04
  -3 -12  -7   87.44    2.63
  -3 -12  -8   55.39    2.40
  -3 -12  -9    1.94    1.22
  -3 -12 -10  162.13    3.62
  -3 -12 -11   51.54    2.63
  -3 -12 -12  199.21    4.08
  -3 -12 -13   39.98    2.63
  -3 -12 -14   32.77    2.37
  -3 -12 -15   77.56    3.62
  -3 -12 -16    4.35    1.32
  -3 -13   2   14.69    1.65
  -3 -13   1   32.77    1.94
  -3 -13   0  557.68    7.94
  -3 -13  -1   25.29    1.94
  -3 -13  -2    1.22    1.02
  -3 -13  -3   32.04    2.21
  -3 -13  -4   77.33    3.36
  -3 -13  -5   52.03    2.31
  -3 -13  -6   82.13    2.90
  -3 -13  -7   27.96    2.01
  -3 -13  -8    8.66    1.48
  -3 -13  -9   29.38    1.94
  -3 -13 -10   48.90    2.11
  -3 -13 -11    2.63    1.32
  -3 -13 -12  160.68    3.36
  -3 -13 -13   15.64    1.84
  -3 -13 -14   21.21    2.63
  -3 -13 -15   12.51    1.75
  -3 -14   2    0.49    1.05
  -3 -14   1    6.98    1.35
  -3 -14   0   14.69    1.78
  -3 -14  -1   95.14    4.08
  -3 -14  -2   51.08    2.63
  -3 -14  -3  277.52    5.80
  -3 -14  -4  515.03    9.88
  -3 -14  -5  142.86    4.58
  -3 -14  -6    0.23    1.02
  -3 -14  -7   12.05    1.61
  -3 -14  -8  277.26    4.81
  -3 -14  -9   25.29    1.81
  -3 -14 -10   12.28    1.65
  -3 -14 -11    1.45    1.48
  -3 -14 -12   67.22    2.40
  -3 -14 -13   45.28    2.40
  -3 -14 -14   12.28    1.65
  -3 -15   2   69.85    3.36
  -3 -15   1   18.80    2.07
  -3 -15   0  312.20    8.92
  -3 -15  -1   26.97    2.40
  -3 -15  -2    2.17    1.28
  -3 -15  -3   42.38    2.63
  -3 -15  -4    6.26    1.19
  -3 -15  -5    0.72    1.09
  -3 -15  -6   99.26    3.13
  -3 -15  -7    1.68    1.12
  -3 -15  -8    1.68    1.12
  -3 -15  -9    0.00    1.12
  -3 -15 -10    0.96    1.12
  -3 -15 -11   19.99    1.78
  -3 -15 -12  143.32    3.13
  -3 -15 -13    0.23    1.12
  -3 -16   2   94.42    3.13
  -3 -16   1    1.94    1.15
  -3 -16   0    9.88    1.55
  -3 -16  -1   13.73    1.68
  -3 -16  -2  152.97    3.36
  -3 -16  -3  158.27    3.62
  -3 -16  -4   12.78    1.65
  -3 -16  -5  115.40    4.08
  -3 -16  -6    0.49    1.12
  -3 -16  -7   99.49    2.63
  -3 -16  -8    1.68    1.19
  -3 -16  -9   35.17    2.17
  -3 -16 -10   28.19    2.31
  -3 -16 -11   10.60    1.65
  -3 -16 -12    0.23    1.09
  -3 -17   2    3.13    1.25
  -3 -17   1   34.22    2.63
  -3 -17   0   26.02    2.63
  -3 -17  -1   82.40    3.85
  -3 -17  -2   16.14    2.01
  -3 -17  -3   98.53    3.13
  -3 -17  -4   62.41    3.13
  -3 -17  -5   44.56    2.21
  -3 -17  -6  234.87    4.35
  -3 -17  -7    5.80    1.28
  -3 -17  -8   51.08    2.21
  -3 -17  -9   14.23    1.98
  -3 -17 -10   14.23    1.84
  -3 -17 -11   19.99    1.78
  -3 -18   2   41.92    3.36
  -3 -18   1    5.80    1.58
  -3 -18   0    2.63    1.22
  -3 -18  -1    2.63    1.19
  -3 -18  -2   52.53    2.21
  -3 -18  -3   16.14    2.11
  -3 -18  -4   62.87    3.13
  -3 -18  -5   33.95    2.07
  -3 -18  -6   48.41    2.17
  -3 -18  -7   48.67    2.14
  -3 -18  -8    7.94    1.71
  -3 -19   2   85.53    8.43
  -3 -19   1    6.98    1.51
  -3 -19   0   23.84    3.36
  -3 -19  -1    2.63    1.19
  -3 -19  -2   26.25    2.63
  -3 -19  -3   58.78    4.58
  -3 -19  -4    9.39    2.27
  -3 -19  -5   13.01    1.81
  -3 -19  -6   23.38    2.04
  -3 -19  -7    1.22    3.13
  -3 -20   2   15.18    2.21
  -3 -20   1   32.27    4.58
  -3 -20   0    5.07    1.25
  -3 -20  -1   71.53    2.63
  -3 -20  -2    7.71    2.63
  -3 -20  -3   19.27   12.05
  -3 -20  -4   -0.23    1.05
  -2   0   0 4473.24  140.65
  -2   0  -1    0.23    0.69
  -2   0  -2 1312.72   40.84
  -2   0  -3    0.46    1.05
  -2   0  -4    3.85    1.48
  -2   0  -5    0.23    1.38
  -2   0  -6   53.48    4.35
  -2   0  -7    0.49    1.68
  -2   0  -8 1414.28   55.39
  -2   0  -9    0.49    1.35
  -2   0 -10   34.22    2.90
  -2   0 -11   -0.23    1.05
  -2   0 -12  672.81    7.71
  -2   0 -13    0.23    1.02
  -2   0 -14   42.38    3.62
  -2   0 -15    0.00    1.84
  -2   0 -16   19.50    2.63
  -2   0 -17   -0.49    1.58
  -2   0 -18    0.49    1.81
  -2   0 -19   -0.23    1.48
  -2   0 -20  104.79    4.58
  -2   0 -21    1.45    1.58
  -2   0 -22   12.51    2.01
  -2  -1   1  121.59    3.62
  -2  -1   0  176.48    2.96
  -2  -1  -1 1309.29   16.10
  -2  -1  -2  130.64    5.20
  -2  -1  -3 1620.31   24.96
  -2  -1  -4  411.26   11.79
  -2  -1  -5    0.72    1.38
  -2  -1  -6  215.84    7.94
  -2  -1  -7 1525.10   33.72
  -2  -1  -8  260.40    7.21
  -2  -1  -9  390.25   15.41
  -2  -1 -10   71.53    3.13
  -2  -1 -11   -0.23    0.89
  -2  -1 -12  133.94    5.80
  -2  -1 -13    4.35    1.25
  -2  -1 -14   36.62    2.27
  -2  -1 -15   24.07    2.90
  -2  -1 -16   84.54    3.62
  -2  -1 -17   25.29    2.17
  -2  -1 -18   33.72    4.81
  -2  -1 -19  116.84    4.81
  -2  -1 -20   38.30    2.24
  -2  -1 -21    7.71    1.78
  -2  -1 -22   12.78    2.01
  -2  -2   1 2048.56   19.96
  -2  -2   0  284.24    5.01
  -2  -2  -1  908.24   16.80
  -2  -2  -2 1196.34   17.45
  -2  -2  -3 2345.51   29.47
  -2  -2  -4   87.34    5.66
  -2  -2  -5  568.74   13.01
  -2  -2  -6  149.58    5.07
  -2  -2  -7   27.47    2.27
  -2  -2  -8   21.44    2.11
  -2  -2  -9   42.65    2.90
  -2  -2 -10   41.66    2.04
  -2  -2 -11  518.39    8.92
  -2  -2 -12    0.00    0.96
  -2  -2 -13   24.57    2.90
  -2  -2 -14  619.56   10.83
  -2  -2 -15  352.18    7.21
  -2  -2 -16   95.64    4.08
  -2  -2 -17    1.68    1.25
  -2  -2 -18   79.50    3.13
  -2  -2 -19   29.38    3.62
  -2  -2 -20   14.46    2.63
  -2  -2 -21   32.77    2.63
  -2  -2 -22    1.94    1.28
  -2  -3   1 1234.67   17.45
  -2  -3   0  104.33    4.31
  -2  -3  -1    0.69    1.15
  -2  -3  -2   17.68    2.24
  -2  -3  -3   56.02    3.39
  -2  -3  -4  659.57   13.24
  -2  -3  -5    2.90    1.02
  -2  -3  -6 2147.32   43.37
  -2  -3  -7  416.50   11.56
  -2  -3  -8  631.87   13.01
  -2  -3  -9  305.22    5.53
  -2  -3 -10    0.49    0.99
  -2  -3 -11  503.47    6.75
  -2  -3 -12   52.53    2.14
  -2  -3 -13    0.49    0.99
  -2  -3 -14  159.23    4.35
  -2  -3 -15   12.78    1.98
  -2  -3 -16  111.77    3.62
  -2  -3 -17   23.61    2.01
  -2  -3 -18  222.59    5.53
  -2  -3 -19   75.15    2.90
  -2  -3 -20  133.44    4.08
  -2  -3 -21   69.13    2.63
  -2  -3 -22    0.96    1.25
  -2  -4   1    8.40    1.61
  -2  -4   0   62.60    3.85
  -2  -4  -1  393.11    8.86
  -2  -4  -2   18.84    2.50
  -2  -4  -3    1.45    2.21
  -2  -4  -4  125.27    4.81
  -2  -4  -5  526.59   12.05
  -2  -4  -6  549.97   13.96
  -2  -4  -7    0.23    0.92
  -2  -4  -8   99.72    3.85
  -2  -4  -9   53.98    3.13
  -2  -4 -10   30.36    2.63
  -2  -4 -11  395.06    5.53
  -2  -4 -12   28.91    2.63
  -2  -4 -13    6.75    1.22
  -2  -4 -14    4.08    1.15
  -2  -4 -15   72.98    2.90
  -2  -4 -16   52.26    2.90
  -2  -4 -17   69.39    3.13
  -2  -4 -18    8.20    1.38
  -2  -4 -19   17.82    3.13
  -2  -4 -20    4.35    1.32
  -2  -4 -21   -0.23    1.28
  -2  -4 -22   17.82    1.84
  -2  -5   1   18.61    2.50
  -2  -5   0  318.72   10.90
  -2  -5  -1  252.46    9.65
  -2  -5  -2   37.35    5.30
  -2  -5  -3 2565.50   50.58
  -2  -5  -4  152.25    4.58
  -2  -5  -5 1646.49   26.51
  -2  -5  -6   25.52    1.88
  -2  -5  -7   35.90    2.21
  -2  -5  -8  147.90    3.62
  -2  -5  -9  181.89    5.07
  -2  -5 -10   64.55    2.40
  -2  -5 -11   65.27    2.07
  -2  -5 -12   85.26    3.13
  -2  -5 -13    0.00    0.99
  -2  -5 -14   26.97    1.98
  -2  -5 -15  508.51   11.07
  -2  -5 -16    7.71    1.55
  -2  -5 -17  431.45    6.26
  -2  -5 -18   97.81    2.90
  -2  -5 -19    7.71    1.45
  -2  -5 -20    4.35    1.32
  -2  -5 -21    4.58    1.65
  -2  -6   1   52.99    3.85
  -2  -6   0 3815.71   77.09
  -2  -6  -1   35.17    2.37
  -2  -6  -2   33.23    2.90
  -2  -6  -3   77.56    3.13
  -2  -6  -4 2293.28   50.58
  -2  -6  -5  103.57    3.36
  -2  -6  -6  274.85    6.26
  -2  -6  -7  104.07    2.90
  -2  -6  -8   12.28    1.55
  -2  -6  -9   42.65    2.07
  -2  -6 -10  267.15    4.58
  -2  -6 -11  216.33    3.62
  -2  -6 -12  217.52    3.85
  -2  -6 -13   57.34    2.40
  -2  -6 -14  122.87    3.36
  -2  -6 -15    3.62    1.32
  -2  -6 -16   73.70    2.90
  -2  -6 -17   28.19    2.11
  -2  -6 -18    2.17    1.28
  -2  -6 -19    9.39    1.48
  -2  -6 -20    1.94    1.42
  -2  -6 -21    7.21    2.40
  -2  -7   1    3.85    1.12
  -2  -7   0  169.83    4.35
  -2  -7  -1  105.28    3.36
  -2  -7  -2   83.85    3.36
  -2  -7  -3    0.49    0.99
  -2  -7  -4  327.38    7.48
  -2  -7  -5  249.33    6.26
  -2  -7  -6  460.82    7.94
  -2  -7  -7    0.96    0.92
  -2  -7  -8 1032.23   14.23
  -2  -7  -9  329.06    5.07
  -2  -7 -10    1.22    0.92
  -2  -7 -11  133.44    3.36
  -2  -7 -12   13.50    1.65
  -2  -7 -13   11.07    1.61
  -2  -7 -14    9.88    1.51
  -2  -7 -15   18.80    2.01
  -2  -7 -16    0.72    1.19
  -2  -7 -17   -0.23    1.22
  -2  -7 -18  211.76    4.08
  -2  -7 -19    4.35    1.28
  -2  -7 -20   17.59    1.88
  -2  -7 -21   -2.90    1.48
  -2  -8   1   70.11    2.90
  -2  -8   0   62.87    2.90
  -2  -8  -1  898.03   19.50
  -2  -8  -2   44.33    2.37
  -2  -8  -3    1.45    1.38
  -2  -8  -4   32.77    3.13
  -2  -8  -5   12.78    1.58
  -2  -8  -6  169.11    4.35
  -2  -8  -7    0.23    1.02
  -2  -8  -8    0.23    0.82
  -2  -8  -9   69.62    2.27
  -2  -8 -10    6.75    1.22
  -2  -8 -11    1.94    1.09
  -2  -8 -12    5.53    1.19
  -2  -8 -13   23.38    1.98
  -2  -8 -14  158.27    4.35
  -2  -8 -15   33.49    2.01
  -2  -8 -16    5.30    1.28
  -2  -8 -17    2.90    1.28
  -2  -8 -18   35.67    2.63
  -2  -8 -19  114.41    5.30
  -2  -8 -20    6.03    1.78
  -2  -9   1  112.99    4.08
  -2  -9   0    2.63    1.22
  -2  -9  -1  603.91   14.95
  -2  -9  -2   96.13    3.13
  -2  -9  -3  293.66    7.21
  -2  -9  -4   37.81    2.63
  -2  -9  -5   47.69    2.31
  -2  -9  -6   52.99    2.37
  -2  -9  -7   79.73    2.90
  -2  -9  -8   62.64    2.17
  -2  -9  -9   30.59    1.94
  -2  -9 -10  140.19    3.85
  -2  -9 -11    6.03    1.22
  -2  -9 -12    0.96    1.12
  -2  -9 -13    1.94    1.22
  -2  -9 -14    2.63    1.22
  -2  -9 -15    7.94    1.45
  -2  -9 -16   36.85    2.21
  -2  -9 -17  114.41    3.13
  -2  -9 -18    4.35    1.45
  -2  -9 -19   19.03    3.62
  -2  -9 -20    7.94    8.92
  -2 -10   1   51.08    2.17
  -2 -10   0    1.68    0.96
  -2 -10  -1  188.14    5.30
  -2 -10  -2  122.15    3.36
  -2 -10  -3  691.84    9.65
  -2 -10  -4  137.56    3.85
  -2 -10  -5  113.22    3.62
  -2 -10  -6    4.81    0.96
  -2 -10  -7   75.65    2.34
  -2 -10  -8  159.46    3.36
  -2 -10  -9    6.49    1.22
  -2 -10 -10   17.36    2.04
  -2 -10 -11    7.94    1.61
  -2 -10 -12   55.66    2.90
  -2 -10 -13   90.56    3.13
  -2 -10 -14   36.85    2.14
  -2 -10 -15  140.42    3.36
  -2 -10 -16    0.96    1.28
  -2 -10 -17    3.13    1.28
  -2 -10 -18    6.98    1.84
  -2 -10 -19    1.68    1.45
  -2 -11   1   11.56    1.58
  -2 -11   0  136.34    4.08
  -2 -11  -1   21.44    1.65
  -2 -11  -2    4.58    0.96
  -2 -11  -3    0.49    0.86
  -2 -11  -4   35.40    2.14
  -2 -11  -5   13.24    1.65
  -2 -11  -6   20.95    1.68
  -2 -11  -7 1167.85   21.44
  -2 -11  -8    1.68    1.02
  -2 -11  -9  648.01   10.11
  -2 -11 -10   77.56    3.36
  -2 -11 -11    5.80    1.58
  -2 -11 -12  119.97    5.07
  -2 -11 -13    1.94    1.19
  -2 -11 -14   41.92    2.24
  -2 -11 -15    2.17    1.28
  -2 -11 -16    7.94    1.51
  -2 -11 -17  204.28    4.35
  -2 -11 -18   27.96    2.63
  -2 -11 -19  139.73    3.13
  -2 -12   1  240.41    7.21
  -2 -12   0  694.25    8.92
  -2 -12  -1  273.17    5.80
  -2 -12  -2  116.58    3.62
  -2 -12  -3  246.66    5.07
  -2 -12  -4   58.29    2.90
  -2 -12  -5  250.52    4.81
  -2 -12  -6    1.68    1.02
  -2 -12  -7    6.75    1.22
  -2 -12  -8    1.22    1.15
  -2 -12  -9    0.00    1.22
  -2 -12 -10   11.79    2.21
  -2 -12 -11   36.85    2.40
  -2 -12 -12   84.80    2.63
  -2 -12 -13    0.96    1.22
  -2 -12 -14   19.27    2.63
  -2 -12 -15   30.36    3.13
  -2 -12 -16   10.83    3.36
  -2 -12 -17   11.33    1.84
  -2 -12 -18    5.53    2.01
  -2 -13   1   39.98    2.01
  -2 -13   0  143.59    4.08
  -2 -13  -1   43.11    1.98
  -2 -13  -2   27.96    1.81
  -2 -13  -3   67.68    3.36
  -2 -13  -4  894.67   15.41
  -2 -13  -5    8.66    1.45
  -2 -13  -6  439.88    7.71
  -2 -13  -7   21.21    1.88
  -2 -13  -8    1.45    1.22
  -2 -13  -9    7.94    1.84
  -2 -13 -10    8.92    1.38
  -2 -13 -11    6.75    1.55
  -2 -13 -12   37.81    2.14
  -2 -13 -13    1.22    1.25
  -2 -13 -14  150.07    3.85
  -2 -13 -15    5.80    1.68
  -2 -13 -16  140.92   19.03
  -2 -13 -17    2.17    1.25
  -2 -14   1  159.00    5.07
  -2 -14   0  191.77    5.53
  -2 -14  -1   35.67    2.11
  -2 -14  -2    0.72    1.02
  -2 -14  -3  118.52    4.08
  -2 -14  -4   87.20    3.62
  -2 -14  -5  187.65    5.80
  -2 -14  -6   70.11    2.90
  -2 -14  -7   66.72    2.90
  -2 -14  -8   18.54    1.88
  -2 -14  -9    9.16    1.38
  -2 -14 -10    0.00    1.15
  -2 -14 -11   90.33    2.63
  -2 -14 -12    2.90    1.28
  -2 -14 -13    0.23    1.22
  -2 -14 -14    5.80    1.35
  -2 -14 -15   33.72    2.17
  -2 -14 -16   12.28    2.63
  -2 -15   1    5.30    1.28
  -2 -15   0   88.65    3.13
  -2 -15  -1    0.49    1.15
  -2 -15  -2   40.70    2.40
  -2 -15  -3    0.23    1.15
  -2 -15  -4    2.17    1.22
  -2 -15  -5   20.71    2.01
  -2 -15  -6    0.96    1.12
  -2 -15  -7  211.26    4.81
  -2 -15  -8   41.92    2.11
  -2 -15  -9    4.81    1.28
  -2 -15 -10   35.40    2.11
  -2 -15 -11   26.74    2.63
  -2 -15 -12   84.80    3.36
  -2 -15 -13    0.96    1.22
  -2 -15 -14    5.07    1.35
  -2 -15 -15    2.63    1.28
  -2 -16   1    3.36    1.28
  -2 -16   0  159.23    5.53
  -2 -16  -1   31.32    2.63
  -2 -16  -2    6.26    1.38
  -2 -16  -3   60.46    3.36
  -2 -16  -4  274.13    4.58
  -2 -16  -5    2.40    1.19
  -2 -16  -6   14.69    1.84
  -2 -16  -7   33.23    2.07
  -2 -16  -8   34.45    2.11
  -2 -16  -9    1.94    1.25
  -2 -16 -10   18.08    1.88
  -2 -16 -11   16.86    2.24
  -2 -16 -12    4.81    1.35
  -2 -16 -13   27.70    2.01
  -2 -16 -14    0.23    1.19
  -2 -17   1   20.48    1.84
  -2 -17   0   67.22    3.36
  -2 -17  -1    5.80    1.32
  -2 -17  -2   34.45    2.63
  -2 -17  -3   28.65    2.04
  -2 -17  -4   47.23    2.31
  -2 -17  -5  164.53    5.07
  -2 -17  -6   60.23    2.90
  -2 -17  -7    5.53    1.32
  -2 -17  -8    2.40    1.28
  -2 -17  -9    3.36    1.28
  -2 -17 -10   14.46    1.84
  -2 -17 -11    4.58    1.28
  -2 -17 -12   20.71    1.88
  -2 -17 -13    2.40    1.15
  -2 -18   1   33.95    2.90
  -2 -18   0   26.74    3.85
  -2 -18  -1  193.44    3.62
  -2 -18  -2   10.83    1.75
  -2 -18  -3    1.22    1.25
  -2 -18  -4   46.24    2.24
  -2 -18  -5    9.16    1.58
  -2 -18  -6   33.49    2.31
  -2 -18  -7    8.20    1.51
  -2 -18  -8   22.39    2.01
  -2 -18  -9   29.87    2.63
  -2 -18 -10   32.27    2.21
  -2 -18 -11    9.16    1.61
  -2 -19   1   -1.22    1.22
  -2 -19   0    2.90    1.94
  -2 -19  -1   56.84    2.63
  -2 -19  -2   23.84    2.40
  -2 -19  -3   59.51    3.13
  -2 -19  -4   13.24    1.88
  -2 -19  -5    0.49    1.32
  -2 -19  -6  237.05    4.58
  -2 -19  -7   16.86    2.11
  -2 -19  -8  319.41    7.94
  -2 -19  -9   20.71    3.36
  -2 -20   1   11.33    1.75
  -2 -20   0   49.63    3.13
  -2 -20  -1   14.23    1.81
  -2 -20  -2    7.48    2.14
  -2 -20  -3   49.40    2.63
  -2 -20  -4   54.44    2.34
  -2 -20  -5    8.20    2.37
  -2 -20  -6    0.49    1.19
  -2 -21   1    6.98    1.42
  -2 -21   0    4.81    1.32
  -2 -21  -1    9.88    2.63
  -2 -21  -2    6.75    1.15
  -2 -21  -3   34.22    2.27
  -1   0  -1    0.69    0.63
  -1   0  -2 2228.24   40.84
  -1   0  -3   -0.69    0.89
  -1   0  -4   15.87    2.14
  -1   0  -5    0.92    1.35
  -1   0  -6 2490.68   38.56
  -1   0  -7    0.49    1.68
  -1   0  -8  447.32   11.79
  -1   0  -9    0.23    1.09
  -1   0 -10 1760.66   43.37
  -1   0 -11    0.23    0.86
  -1   0 -12  198.25    5.30
  -1   0 -13    0.23    0.89
  -1   0 -14  208.86    3.85
  -1   0 -15    0.00    1.02
  -1   0 -16  195.85    5.07
  -1   0 -17    0.49    1.58
  -1   0 -18  118.03    2.63
  -1   0 -19    0.49    1.12
  -1   0 -20   20.95    4.58
  -1   0 -21    0.72    1.28
  -1   0 -22   83.12    2.90
  -1   0 -23    0.96    1.38
  -1  -1   0 9999.00  206.42
  -1  -1  -1   40.61    1.75
  -1  -1  -2 1524.80   22.69
  -1  -1  -3  612.67   12.48
  -1  -1  -4  110.26    4.78
  -1  -1  -5   12.25    2.01
  -1  -1  -6 1954.67   31.75
  -1  -1  -7   98.27    5.30
  -1  -1  -8   22.89    2.37
  -1  -1  -9  279.43    7.94
  -1  -1 -10  171.02    5.80
  -1  -1 -11   -0.23    0.82
  -1  -1 -12  418.67    9.39
  -1  -1 -13   39.26    2.63
  -1  -1 -14   57.57    2.40
  -1  -1 -15  132.49    3.62
  -1  -1 -16   18.80    1.94
  -1  -1 -17   18.31    2.40
  -1  -1 -18   72.75    3.13
  -1  -1 -19    2.17    1.32
  -1  -1 -20   85.99    4.35
  -1  -1 -21    7.48    1.94
  -1  -1 -22   33.95    2.40
  -1  -1 -23    2.40    1.38
  -1  -2   0 4833.92   99.82
  -1  -2  -1 1842.37   20.88
  -1  -2  -2  129.52    5.20
  -1  -2  -3 2558.72   36.29
  -1  -2  -4 3461.52   40.84
  -1  -2  -5 1912.25   27.24
  -1  -2  -6  342.07   14.95
  -1  -2  -7 1043.07   18.08
  -1  -2  -8 2433.01   55.39
  -1  -2  -9  196.08    5.53
  -1  -2 -10  267.38    7.94
  -1  -2 -11    1.68    0.96
  -1  -2 -12   86.97    3.36
  -1  -2 -13    1.94    0.96
  -1  -2 -14   28.91    3.13
  -1  -2 -15   69.39    2.63
  -1  -2 -16    5.07    1.28
  -1  -2 -17    4.35    1.35
  -1  -2 -18   27.96    2.04
  -1  -2 -19   88.65    3.62
  -1  -2 -20  108.87    4.08
  -1  -2 -21    1.68    1.84
  -1  -2 -22  112.99    3.62
  -1  -2 -23    2.17    1.38
  -1  -3   0 1004.67   14.06
  -1  -3  -1 4620.68   79.40
  -1  -3  -2  145.17    4.31
  -1  -3  -3 2933.03   34.02
  -1  -3  -4   14.52    2.24
  -1  -3  -5  501.53   13.83
  -1  -3  -6  134.43    8.43
  -1  -3  -7  781.68   15.41
  -1  -3  -8  790.11   17.09
  -1  -3  -9  378.92    9.88
  -1  -3 -10   76.37    4.81
  -1  -3 -11  633.06    9.16
  -1  -3 -12  221.37    4.08
  -1  -3 -13   80.22    3.36
  -1  -3 -14   39.52    2.37
  -1  -3 -15  148.89    5.07
  -1  -3 -16   83.35    3.85
  -1  -3 -17   40.47    2.37
  -1  -3 -18   76.60    2.63
  -1  -3 -19   28.42    2.11
  -1  -3 -20    3.85    1.38
  -1  -3 -21    7.48    1.68
  -1  -3 -22   -0.23    1.35
  -1  -3 -23   13.50    2.37
  -1  -4   0 3028.27   34.02
  -1  -4  -1  420.78    9.09
  -1  -4  -2 1943.77   24.96
  -1  -4  -3 2253.63   34.02
  -1  -4  -4  689.80   14.06
  -1  -4  -5  747.50   19.99
  -1  -4  -6    1.22    1.22
  -1  -4  -7  715.92   12.28
  -1  -4  -8    0.96    1.05
  -1  -4  -9  210.04    7.71
  -1  -4 -10   34.94    1.94
  -1  -4 -11  932.74   13.73
  -1  -4 -12   48.41    2.40
  -1  -4 -13   67.68    2.90
  -1  -4 -14  263.06    5.80
  -1  -4 -15   67.22    2.40
  -1  -4 -16  117.31    3.36
  -1  -4 -17    9.88    1.61
  -1  -4 -18    0.23    1.15
  -1  -4 -19    9.65    1.58
  -1  -4 -20   38.07    2.31
  -1  -4 -21  121.65    3.62
  -1  -4 -22   53.71    3.13
  -1  -4 -23   33.95    2.24
  -1  -5   0 1266.45   19.07
  -1  -5  -1  745.16   14.06
  -1  -5  -2   24.04    2.96
  -1  -5  -3 2449.84   40.84
  -1  -5  -4  620.28   13.96
  -1  -5  -5 1040.89   22.39
  -1  -5  -6  318.23    6.98
  -1  -5  -7 1123.75   17.36
  -1  -5  -8  222.36    5.53
  -1  -5  -9    0.00    1.15
  -1  -5 -10   70.11    2.63
  -1  -5 -11    9.39    1.35
  -1  -5 -12   39.75    1.78
  -1  -5 -13   93.96    2.63
  -1  -5 -14   91.06    2.90
  -1  -5 -15  165.25    3.62
  -1  -5 -16    3.13    1.19
  -1  -5 -17   52.03    2.63
  -1  -5 -18    7.48    1.38
  -1  -5 -19  194.40    4.08
  -1  -5 -20   27.24    2.27
  -1  -5 -21   70.11    2.63
  -1  -5 -22   18.31    2.40
  -1  -6   0  290.79    8.63
  -1  -6  -1    1.45    1.71
  -1  -6  -2  566.11   13.24
  -1  -6  -3  107.92    7.48
  -1  -6  -4  300.15    7.94
  -1  -6  -5  161.63    5.53
  -1  -6  -6   52.26    2.63
  -1  -6  -7   15.64    1.81
  -1  -6  -8  214.39    5.53
  -1  -6  -9  284.50    5.07
  -1  -6 -10    3.85    1.19
  -1  -6 -11  674.98    9.65
  -1  -6 -12   25.06    1.61
  -1  -6 -13   30.82    1.91
  -1  -6 -14   10.83    1.55
  -1  -6 -15    1.68    1.12
  -1  -6 -16    0.72    1.19
  -1  -6 -17   18.31    1.94
  -1  -6 -18  253.18    4.58
  -1  -6 -19   39.75    2.27
  -1  -6 -20   14.95    2.11
  -1  -6 -21   32.77    2.21
  -1  -6 -22   18.08    2.17
  -1  -7   0  505.38   13.01
  -1  -7  -1    0.23    0.99
  -1  -7  -2    1.22    1.05
  -1  -7  -3  116.58    3.85
  -1  -7  -4  218.97    5.80
  -1  -7  -5  170.79    5.53
  -1  -7  -6   15.91    1.94
  -1  -7  -7  542.96   11.79
  -1  -7  -8  269.55    4.81
  -1  -7  -9  621.73    8.43
  -1  -7 -10   15.18    1.55
  -1  -7 -11    5.07    0.99
  -1  -7 -12   63.59    2.27
  -1  -7 -13  170.56    3.85
  -1  -7 -14  179.45    4.35
  -1  -7 -15    3.36    1.22
  -1  -7 -16   44.82    2.40
  -1  -7 -17  177.04    4.08
  -1  -7 -18    7.94    1.45
  -1  -7 -19   42.65    2.37
  -1  -7 -20    5.53    1.42
  -1  -7 -21    8.43    1.58
  -1  -7 -22   38.07    7.21
  -1  -8   0    8.20    1.55
  -1  -8  -1   79.50    3.13
  -1  -8  -2   67.22    3.36
  -1  -8  -3  299.42    9.65
  -1  -8  -4  759.06   15.64
  -1  -8  -5  433.62   11.07
  -1  -8  -6   42.88    3.13
  -1  -8  -7   52.76    2.27
  -1  -8  -8  434.58    7.48
  -1  -8  -9  138.74    3.13
  -1  -8 -10    0.23    0.86
  -1  -8 -11   37.35    2.17
  -1  -8 -12    0.00    0.96
  -1  -8 -13    0.23    0.99
  -1  -8 -14   38.30    2.11
  -1  -8 -15    0.00    1.22
  -1  -8 -16   52.76    2.27
  -1  -8 -17  203.06    3.85
  -1  -8 -18   29.38    2.11
  -1  -8 -19   55.89    2.40
  -1  -8 -20    3.36    1.55
  -1  -8 -21  109.86    9.39
  -1  -9   0  766.27   17.09
  -1  -9  -1 1231.94   26.51
  -1  -9  -2    1.68    1.12
  -1  -9  -3   19.76    2.07
  -1  -9  -4   10.11    2.24
  -1  -9  -5   97.32    2.90
  -1  -9  -6  192.46    5.53
  -1  -9  -7    0.72    0.92
  -1  -9  -8   50.35    2.40
  -1  -9  -9  205.00    3.85
  -1  -9 -10   66.95    3.13
  -1  -9 -11  432.90    6.75
  -1  -9 -12   96.13    3.13
  -1  -9 -13    7.21    1.28
  -1  -9 -14    0.49    1.12
  -1  -9 -15    8.20    1.88
  -1  -9 -16    4.08    1.32
  -1  -9 -17   49.63    2.90
  -1  -9 -18   32.27    2.40
  -1  -9 -19    5.30    1.65
  -1  -9 -20    6.26    1.38
  -1  -9 -21    2.63    1.22
  -1 -10   0   30.10    2.24
  -1 -10  -1   35.90    2.01
  -1 -10  -2   98.99    4.35
  -1 -10  -3   27.96    1.88
  -1 -10  -4  150.30    5.53
  -1 -10  -5   19.27    2.40
  -1 -10  -6   46.73    3.36
  -1 -10  -7  450.22    7.94
  -1 -10  -8   31.81    2.37
  -1 -10  -9  323.26    5.80
  -1 -10 -10  282.56    5.80
  -1 -10 -11  230.07    5.80
  -1 -10 -12   47.69    3.13
  -1 -10 -13   35.17    2.90
  -1 -10 -14  101.89    3.85
  -1 -10 -15   80.45    4.08
  -1 -10 -16   74.20    3.13
  -1 -10 -17   72.75    2.63
  -1 -10 -18    1.22    1.28
  -1 -10 -19  234.15    4.58
  -1 -10 -20   25.29    3.62
  -1 -11   0  187.19    6.03
  -1 -11  -1  255.82    6.03
  -1 -11  -2   56.84    2.14
  -1 -11  -3    5.53    1.02
  -1 -11  -4  126.23    3.85
  -1 -11  -5   35.90    2.01
  -1 -11  -6  251.97    6.26
  -1 -11  -7   73.24    3.62
  -1 -11  -8   55.89    2.63
  -1 -11  -9   13.50    1.65
  -1 -11 -10   54.21    2.40
  -1 -11 -11   57.10    2.40
  -1 -11 -12   17.59    2.17
  -1 -11 -13   38.53    2.40
  -1 -11 -14   11.07    1.75
  -1 -11 -15   53.25    3.36
  -1 -11 -16    1.22    1.48
  -1 -11 -17    1.68    1.45
  -1 -11 -18    6.75    1.84
  -1 -11 -19   23.61    2.90
  -1 -11 -20   14.69    8.66
  -1 -12   0  545.85    8.92
  -1 -12  -1  127.68    3.13
  -1 -12  -2   18.08    1.55
  -1 -12  -3   72.25    2.63
  -1 -12  -4    9.16    1.48
  -1 -12  -5    3.62    1.05
  -1 -12  -6    0.49    0.92
  -1 -12  -7   56.12    2.63
  -1 -12  -8  114.90    4.81
  -1 -12  -9   18.31    1.84
  -1 -12 -10  396.01    6.49
  -1 -12 -11   22.16    2.90
  -1 -12 -12   91.06    3.62
  -1 -12 -13   20.22    2.31
  -1 -12 -14   83.58    3.85
  -1 -12 -15    0.96    1.28
  -1 -12 -16    4.81    1.51
  -1 -12 -17   63.36    2.90
  -1 -12 -18   36.39    2.37
  -1 -12 -19  104.56    3.13
  -1 -13   0   31.09    2.27
  -1 -13  -1  139.47    4.08
  -1 -13  -2   36.62    1.91
  -1 -13  -3   10.37    1.35
  -1 -13  -4   97.55    3.36
  -1 -13  -5    1.68    0.99
  -1 -13  -6   58.06    2.40
  -1 -13  -7    2.90    1.05
  -1 -13  -8  117.57    3.13
  -1 -13  -9   27.24    2.04
  -1 -13 -10  148.89    4.58
  -1 -13 -11   40.24    2.63
  -1 -13 -12   19.27    2.14
  -1 -13 -13   10.83    1.81
  -1 -13 -14  296.06    5.07
  -1 -13 -15    3.36    1.68
  -1 -13 -16    6.03    1.84
  -1 -13 -17    6.75    2.21
  -1 -13 -18   91.06    3.13
  -1 -14   0  253.41    7.48
  -1 -14  -1  119.25    4.58
  -1 -14  -2   87.93    3.36
  -1 -14  -3    0.96    1.02
  -1 -14  -4  143.32    5.80
  -1 -14  -5    2.40    1.15
  -1 -14  -6    0.49    1.05
  -1 -14  -7   31.32    2.04
  -1 -14  -8    5.07    1.28
  -1 -14  -9   12.28    1.78
  -1 -14 -10   25.06    1.88
  -1 -14 -11    2.90    1.25
  -1 -14 -12   10.37    1.68
  -1 -14 -13    3.13    1.35
  -1 -14 -14  146.94    3.85
  -1 -14 -15    0.23    1.28
  -1 -14 -16   63.10    6.03
  -1 -14 -17   20.22    2.40
  -1 -15   0   52.53    3.13
  -1 -15  -1  157.32    5.30
  -1 -15  -2   16.37    1.84
  -1 -15  -3   21.21    2.31
  -1 -15  -4  245.71    8.43
  -1 -15  -5   88.88    3.13
  -1 -15  -6  429.73    9.16
  -1 -15  -7  165.02    5.30
  -1 -15  -8  211.26    4.58
  -1 -15  -9   23.12    1.94
  -1 -15 -10    2.17    1.22
  -1 -15 -11  102.62    2.90
  -1 -15 -12   10.83    1.75
  -1 -15 -13    7.48    1.45
  -1 -15 -14   23.38    2.01
  -1 -15 -15   23.61    2.63
  -1 -15 -16    2.63    1.19
  -1 -16   0    1.45    1.25
  -1 -16  -1   13.50    2.01
  -1 -16  -2    5.80    1.65
  -1 -16  -3  148.89    4.81
  -1 -16  -4    5.30    1.38
  -1 -16  -5   56.61    2.27
  -1 -16  -6   46.73    2.90
  -1 -16  -7  118.52    2.90
  -1 -16  -8   10.60    1.65
  -1 -16  -9   25.79    2.04
  -1 -16 -10    9.39    1.58
  -1 -16 -11    0.23    1.28
  -1 -16 -12   12.78    2.21
  -1 -16 -13    1.68    1.25
  -1 -16 -14   17.09    2.27
  -1 -16 -15   71.07    3.36
  -1 -17   0  152.97    3.62
  -1 -17  -1   82.13    3.85
  -1 -17  -2   -0.23    1.22
  -1 -17  -3   18.08    2.31
  -1 -17  -4    0.23    1.22
  -1 -17  -5   26.02    2.04
  -1 -17  -6    5.80    1.32
  -1 -17  -7   96.13    3.13
  -1 -17  -8    0.72    1.25
  -1 -17  -9   64.55    2.90
  -1 -17 -10    9.88    1.68
  -1 -17 -11   67.94    3.13
  -1 -17 -12   50.81    2.63
  -1 -17 -13   25.06    2.34
  -1 -17 -14    6.49    1.28
  -1 -18   0  105.02    4.58
  -1 -18  -1    0.49    1.19
  -1 -18  -2   30.59    2.40
  -1 -18  -3   49.63    2.34
  -1 -18  -4   14.69    1.91
  -1 -18  -5   40.24    2.24
  -1 -18  -6   58.52    2.40
  -1 -18  -7   23.61    2.11
  -1 -18  -8  128.86    4.08
  -1 -18  -9   49.86    2.37
  -1 -18 -10    4.58    1.35
  -1 -18 -11   52.53    2.31
  -1 -18 -12   10.37    1.98
  -1 -19   0   17.09    3.36
  -1 -19  -1   37.08    3.13
  -1 -19  -2    6.98    1.58
  -1 -19  -3    0.72    1.51
  -1 -19  -4    7.21    1.45
  -1 -19  -5    8.66    1.65
  -1 -19  -6    2.90    1.38
  -1 -19  -7    1.22    1.25
  -1 -19  -8   31.81    2.31
  -1 -19  -9    4.58    1.42
  -1 -19 -10    0.72    1.22
  -1 -19 -11    5.53    1.42
  -1 -20   0   25.79    3.36
  -1 -20  -1    7.71    1.68
  -1 -20  -2   -0.23    1.28
  -1 -20  -3    3.13    1.42
  -1 -20  -4   91.55    3.62
  -1 -20  -5    0.23    1.19
  -1 -20  -6   20.48    2.37
  -1 -20  -7    4.35    1.45
  -1 -20  -8  115.40   48.18
  -1 -21   0  213.90   21.21
  -1 -21  -1    3.36    1.22
  -1 -21  -2    7.48    1.32
  -1 -21  -3   63.59    3.85
  -1 -21  -4    6.98    2.04
  -1 -21  -5    0.72    1.15
   0   0  -2 8170.69   74.86
   0   0  -4 3341.32   45.38
   0   0  -6    5.66    1.65
   0   0  -8   11.56    2.40
   0   0 -10 2222.21   52.99
   0   0 -12 2381.70   55.39
   0   0 -14  206.68    5.53
   0   0 -16    9.88    1.38
   0   0 -18   12.05    1.75
   0   0 -20   74.69    7.94
   0   0 -22  551.39    8.20
   0   0 -24   22.16    2.27
   0  -1   0    0.23    0.46
   0  -1  -1  278.11    4.78
   0  -1  -2   18.38    1.48
   0  -1  -3  829.76   15.18
   0  -1  -4 7447.07  156.53
   0  -1  -5  985.14   17.22
   0  -1  -6  128.83    5.01
   0  -1  -7  180.11    6.36
   0  -1  -8 2120.09   40.97
   0  -1  -9  106.24    3.85
   0  -1 -10    8.20    1.61
   0  -1 -11   52.53    3.13
   0  -1 -12  115.13    3.85
   0  -1 -13   27.96    1.88
   0  -1 -14  168.15    4.35
   0  -1 -15   23.12    1.81
   0  -1 -16   15.91    2.01
   0  -1 -17    2.63    1.15
   0  -1 -18  243.07    5.53
   0  -1 -19    0.23    1.12
   0  -1 -20    1.45    1.32
   0  -1 -21    0.49    1.32
   0  -1 -22    4.08    1.42
   0  -1 -23   44.10    2.34
   0  -1 -24    6.49    1.48
   0  -2   0 1921.77   20.65
   0  -2  -1  190.09    4.31
   0  -2  -2 1349.01   19.27
   0  -2  -3 7723.83  172.40
   0  -2  -4    7.25    1.65
   0  -2  -5  164.69    5.20
   0  -2  -6 3588.58   52.16
   0  -2  -7  104.07    5.30
   0  -2  -8  341.57    8.92
   0  -2  -9  733.04   19.03
   0  -2 -10    3.85    1.22
   0  -2 -11   79.50    3.36
   0  -2 -12   36.13    2.07
   0  -2 -13  236.06    6.49
   0  -2 -14   15.64    1.71
   0  -2 -15  106.47    3.13
   0  -2 -16   36.39    2.01
   0  -2 -17    4.35    1.28
   0  -2 -18   19.27    2.04
   0  -2 -19   87.44    3.13
   0  -2 -20   45.05    3.36
   0  -2 -21    9.39    1.51
   0  -2 -22   69.62    3.85
   0  -2 -23   13.01    2.63
   0  -2 -24   25.29    6.03
   0  -3   0   -1.58    0.99
   0  -3  -1 2946.63   43.11
   0  -3  -2 4824.83   88.46
   0  -3  -3  166.51    5.01
   0  -3  -4  770.78   12.25
   0  -3  -5  166.05    5.66
   0  -3  -6   53.09    3.85
   0  -3  -7  653.77   23.12
   0  -3  -8   98.04    5.80
   0  -3  -9   83.58    4.35
   0  -3 -10    7.21    1.48
   0  -3 -11  323.03    6.75
   0  -3 -12   16.86    2.11
   0  -3 -13   13.24    1.65
   0  -3 -14  148.16    4.35
   0  -3 -15    0.96    1.05
   0  -3 -16  161.63    4.81
   0  -3 -17  191.27    5.07
   0  -3 -18    3.36    1.35
   0  -3 -19   13.50    1.88
   0  -3 -20   19.03    1.98
   0  -3 -21  167.43    3.62
   0  -3 -22   13.50    2.21
   0  -3 -23   11.56    2.21
   0  -3 -24   66.95    2.63
   0  -4   0    2.50    1.35
   0  -4  -1 3441.14   49.89
   0  -4  -2   32.21    2.73
   0  -4  -3 3162.10   38.56
   0  -4  -4   12.25    2.17
   0  -4  -5  360.68    9.09
   0  -4  -6    0.96    1.71
   0  -4  -7    1.68    1.02
   0  -4  -8    4.58    1.12
   0  -4  -9    2.63    1.15
   0  -4 -10  243.80    6.98
   0  -4 -11  376.29    6.26
   0  -4 -12    8.20    1.22
   0  -4 -13    4.58    1.05
   0  -4 -14  287.37    5.30
   0  -4 -15  119.25    4.35
   0  -4 -16   34.68    2.11
   0  -4 -17   19.50    1.91
   0  -4 -18   36.13    2.34
   0  -4 -19    6.98    1.32
   0  -4 -20   26.74    2.07
   0  -4 -21  147.44    3.62
   0  -4 -22   11.07    2.24
   0  -4 -23   46.50    2.34
   0  -5   0    0.92    1.28
   0  -5  -1  160.38    7.05
   0  -5  -2   13.37    2.17
   0  -5  -3 3996.87   58.98
   0  -5  -4  232.73    7.25
   0  -5  -5 1901.12   33.72
   0  -5  -6  242.09    6.49
   0  -5  -7 1052.68   22.66
   0  -5  -8   12.28    1.58
   0  -5  -9  819.98   16.14
   0  -5 -10  241.62    5.07
   0  -5 -11   12.78    1.55
   0  -5 -12    3.62    1.05
   0  -5 -13  435.04    7.71
   0  -5 -14    4.58    1.02
   0  -5 -15  401.08    6.03
   0  -5 -16   10.37    1.51
   0  -5 -17    0.96    1.22
   0  -5 -18   84.54    2.63
   0  -5 -19   11.56    1.68
   0  -5 -20   -0.23    1.25
   0  -5 -21   17.82    2.01
   0  -5 -22   39.02    2.21
   0  -5 -23    0.23    1.28
   0  -6   0  327.32   10.90
   0  -6  -1  343.88    9.98
   0  -6  -2  460.26   14.06
   0  -6  -3  978.75   19.50
   0  -6  -4  564.66   13.96
   0  -6  -5  570.19   13.24
   0  -6  -6  189.10    4.81
   0  -6  -7   58.06    2.63
   0  -6  -8  980.43   17.09
   0  -6  -9   91.55    3.36
   0  -6 -10    5.80    1.22
   0  -6 -11    9.16    1.45
   0  -6 -12    4.08    0.96
   0  -6 -13    1.45    0.89
   0  -6 -14  265.70    4.35
   0  -6 -15    3.85    1.12
   0  -6 -16   17.36    1.84
   0  -6 -17   90.33    3.13
   0  -6 -18   27.96    2.14
   0  -6 -19   80.45    2.63
   0  -6 -20  125.74    3.13
   0  -6 -21    4.81    1.38
   0  -6 -22    4.35    1.38
   0  -6 -23    2.63    1.38
   0  -7   0    0.49    1.65
   0  -7  -1  561.04   13.96
   0  -7  -2   50.09    4.35
   0  -7  -3 1561.46   28.91
   0  -7  -4  486.84   13.01
   0  -7  -5    4.35    1.28
   0  -7  -6   88.42    3.13
   0  -7  -7  347.37    7.71
   0  -7  -8   98.04    3.62
   0  -7  -9   77.82    2.63
   0  -7 -10   45.28    2.24
   0  -7 -11   69.85    2.24
   0  -7 -12   67.94    2.37
   0  -7 -13    0.72    0.92
   0  -7 -14   -0.23    0.99
   0  -7 -15  167.16    3.85
   0  -7 -16   16.14    2.01
   0  -7 -17   17.09    2.07
   0  -7 -18   61.19    2.40
   0  -7 -19   93.96    2.90
   0  -7 -20    3.13    1.32
   0  -7 -21   39.52    2.24
   0  -7 -22    5.80    1.35
   0  -8   0  264.02    6.49
   0  -8  -1 2495.65   55.39
   0  -8  -2   77.33    3.36
   0  -8  -3  412.87    9.88
   0  -8  -4    1.22    1.09
   0  -8  -5    7.94    1.65
   0  -8  -6  350.99   11.79
   0  -8  -7   83.35    3.85
   0  -8  -8   10.37    1.51
   0  -8  -9  446.14    7.21
   0  -8 -10   72.98    3.62
   0  -8 -11 2121.77   48.18
   0  -8 -12    8.20    1.38
   0  -8 -13  244.98    4.81
   0  -8 -14  132.98    3.36
   0  -8 -15    2.90    1.25
   0  -8 -16    0.00    1.22
   0  -8 -17   58.29    2.63
   0  -8 -18   31.81    2.14
   0  -8 -19   51.31    2.37
   0  -8 -20   19.27    1.98
   0  -8 -21   73.70    2.63
   0  -8 -22   37.58    4.35
   0  -9   0    0.00    0.92
   0  -9  -1    0.23    0.96
   0  -9  -2    0.00    1.02
   0  -9  -3  178.26    6.75
   0  -9  -4  151.52    5.80
   0  -9  -5   39.02    3.13
   0  -9  -6   29.15    1.94
   0  -9  -7  490.20    7.48
   0  -9  -8  123.33    4.35
   0  -9  -9   86.97    2.63
   0  -9 -10   23.38    2.11
   0  -9 -11   36.85    1.88
   0  -9 -12   78.05    2.90
   0  -9 -13   18.08    1.88
   0  -9 -14   56.38    2.63
   0  -9 -15   39.98    2.37
   0  -9 -16    2.17    1.81
   0  -9 -17   70.34    2.63
   0  -9 -18   80.22    3.36
   0  -9 -19  187.19    4.08
   0  -9 -20   -0.23    1.48
   0  -9 -21   14.46    2.40
   0  -9 -22   17.59    3.62
   0 -10   0 1692.99   40.97
   0 -10  -1    2.63    1.22
   0 -10  -2  455.52   10.83
   0 -10  -3   29.87    1.88
   0 -10  -4    6.26    1.12
   0 -10  -5  190.55    3.85
   0 -10  -6    3.13    1.12
   0 -10  -7    0.00    0.96
   0 -10  -8   67.68    2.40
   0 -10  -9    2.63    0.92
   0 -10 -10  211.99    4.58
   0 -10 -11  267.15    5.80
   0 -10 -12  343.52    7.21
   0 -10 -13  100.71    4.08
   0 -10 -14  182.61    6.26
   0 -10 -15  140.69    4.58
   0 -10 -16    2.63    1.42
   0 -10 -17   85.76    3.13
   0 -10 -18    7.21    1.38
   0 -10 -19   20.22    1.98
   0 -10 -20   11.79    1.91
   0 -10 -21    5.30    1.42
   0 -11   0    0.00    0.86
   0 -11  -1    5.07    1.05
   0 -11  -2    0.23    0.89
   0 -11  -3   80.45    2.63
   0 -11  -4    4.08    1.09
   0 -11  -5   -0.23    0.92
   0 -11  -6   83.35    3.13
   0 -11  -7  213.67    4.58
   0 -11  -8   18.31    2.04
   0 -11  -9   10.11    1.58
   0 -11 -10  175.37    3.85
   0 -11 -11   17.36    1.78
   0 -11 -12    0.49    1.15
   0 -11 -13  143.32    5.80
   0 -11 -14    0.49    1.22
   0 -11 -15   24.07    2.63
   0 -11 -16    1.94    1.35
   0 -11 -17    0.96    1.25
   0 -11 -18   26.02    2.17
   0 -11 -19   61.19    4.08
   0 -11 -20    0.96    1.94
   0 -12   0  597.66   10.60
   0 -12  -1   32.04    1.81
   0 -12  -2   43.37    2.37
   0 -12  -3    0.23    0.82
   0 -12  -4   64.32    2.40
   0 -12  -5    6.03    1.09
   0 -12  -6  231.25    4.08
   0 -12  -7   54.44    3.13
   0 -12  -8  158.01    4.58
   0 -12  -9   19.99    2.21
   0 -12 -10  384.45    7.71
   0 -12 -11   88.65    3.13
   0 -12 -12  305.94    7.94
   0 -12 -13    0.23    1.35
   0 -12 -14   91.55    2.63
   0 -12 -15    1.45    1.32
   0 -12 -16   38.07    3.13
   0 -12 -17   26.97    4.58
   0 -12 -18    2.40    1.25
   0 -12 -19    4.08    1.42
   0 -12 -20    0.23    1.22
   0 -13   0    0.49    1.19
   0 -13  -1    0.96    0.89
   0 -13  -2  512.36    6.98
   0 -13  -3    3.36    0.96
   0 -13  -4  654.27   11.07
   0 -13  -5   11.79    1.58
   0 -13  -6  136.83    5.30
   0 -13  -7    2.40    1.05
   0 -13  -8  238.73    6.03
   0 -13  -9   33.72    2.14
   0 -13 -10    6.49    1.51
   0 -13 -11    9.39    2.24
   0 -13 -12    0.23    1.48
   0 -13 -13    4.81    1.38
   0 -13 -14  196.57    4.58
   0 -13 -15   -0.23    1.28
   0 -13 -16  201.38    7.48
   0 -13 -17    0.49    1.51
   0 -13 -18   48.41    2.40
   0 -13 -19    4.81    2.90
   0 -14   0    0.49    1.02
   0 -14  -1   23.38    2.11
   0 -14  -2   88.65    3.62
   0 -14  -3  118.03    3.85
   0 -14  -4   50.58    2.63
   0 -14  -5   67.22    2.90
   0 -14  -6   46.73    2.63
   0 -14  -7  105.52    4.08
   0 -14  -8  181.16    4.81
   0 -14  -9  127.42    4.35
   0 -14 -10   35.40    2.37
   0 -14 -11   31.09    2.63
   0 -14 -12    2.90    1.81
   0 -14 -13   15.18    1.98
   0 -14 -14  349.54   13.50
   0 -14 -15    3.13    1.35
   0 -14 -16   33.23    2.63
   0 -14 -17    6.75    1.38
   0 -14 -18    6.26    1.48
   0 -15   0    0.49    1.28
   0 -15  -1   38.53    2.21
   0 -15  -2   13.73    1.78
   0 -15  -3    8.20    1.58
   0 -15  -4   10.60    1.78
   0 -15  -5    0.96    1.19
   0 -15  -6   73.70    2.90
   0 -15  -7   18.54    2.07
   0 -15  -8   33.72    2.37
   0 -15  -9   45.05    2.31
   0 -15 -10  195.62    5.53
   0 -15 -11    9.16    1.58
   0 -15 -12   12.78    2.40
   0 -15 -13   20.71    2.11
   0 -15 -14   11.79    2.27
   0 -15 -15    3.36    1.48
   0 -15 -16    2.63    1.28
   0 -15 -17   21.21    2.31
   0 -16   0  317.50   10.60
   0 -16  -1   37.08    2.90
   0 -16  -2  170.06    7.48
   0 -16  -3   11.07    1.91
   0 -16  -4   27.24    2.24
   0 -16  -5   45.78    2.63
   0 -16  -6   89.84    3.85
   0 -16  -7   21.21    2.01
   0 -16  -8  265.70    6.26
   0 -16  -9   26.74    2.11
   0 -16 -10   70.84    2.63
   0 -16 -11  126.72    5.30
   0 -16 -12   40.97    2.31
   0 -16 -13   19.76    2.04
   0 -16 -14  112.00    3.62
   0 -16 -15   41.92    2.21
   0 -16 -16   12.78    2.90
   0 -17   0   -0.49    1.15
   0 -17  -1   15.18    1.91
   0 -17  -2   30.36    2.63
   0 -17  -3  254.37   12.51
   0 -17  -4    0.49    1.28
   0 -17  -5   23.38    2.07
   0 -17  -6    0.23    1.22
   0 -17  -7  245.94    5.80
   0 -17  -8   18.08    2.01
   0 -17  -9   21.67    2.01
   0 -17 -10    0.23    1.25
   0 -17 -11    5.07    1.38
   0 -17 -12   29.15    2.11
   0 -17 -13   16.37    1.98
   0 -17 -14    1.22    1.25
   0 -17 -15   64.09    2.27
   0 -18   0  103.34    7.21
   0 -18  -1  373.62    6.98
   0 -18  -2    1.45    1.28
   0 -18  -3   11.07    1.84
   0 -18  -4   35.90    2.63
   0 -18  -5    4.58    1.35
   0 -18  -6    1.45    1.35
   0 -18  -7   36.13    2.27
   0 -18  -8    0.49    1.25
   0 -18  -9   23.61    2.04
   0 -18 -10    2.17    1.32
   0 -18 -11  411.69    6.49
   0 -18 -12    3.62    1.32
   0 -18 -13   61.42    2.63
   0 -19   0    1.22    1.88
   0 -19  -1    0.00    1.25
   0 -19  -2    2.63    1.75
   0 -19  -3    3.85    1.35
   0 -19  -4   72.25    4.08
   0 -19  -5    3.36    1.38
   0 -19  -6    0.72    1.25
   0 -19  -7   17.36    1.88
   0 -19  -8   52.99    2.63
   0 -19  -9    5.53    1.38
   0 -19 -10    3.36    1.48
   0 -19 -11   -0.49    1.25
   0 -20   0   60.96    6.03
   0 -20  -1  135.88    3.85
   0 -20  -2    4.08    1.94
   0 -20  -3    4.81    1.38
   0 -20  -4    5.53    1.71
   0 -20  -5   70.11    3.13
   0 -20  -6   27.96    2.37
   0 -20  -7   12.78    2.24
   0 -20  -8    0.23    1.25
   0 -20  -9    1.22    1.19
   0 -21   0    0.00    1.84
   0 -21  -1    0.72    1.22
   0 -21  -2    9.16    2.04
   0 -21  -3   27.47    4.08
   0 -21  -4    6.03    1.81
   0 -21  -5   25.79    6.49
   0 -21  -6    7.21    1.28
   1   0  -2 5031.25   72.58
   1   0  -3   -0.46    0.89
   1   0  -4  496.79    7.94
   1   0  -5    0.69    1.38
   1   0  -6  218.90    6.13
   1   0  -7    0.46    1.45
   1   0  -8  245.21    8.20
   1   0  -9    0.23    1.15
   1   0 -10  113.95    3.85
   1   0 -11    0.23    1.05
   1   0 -12  111.77    2.90
   1   0 -13   -0.23    0.86
   1   0 -14  147.44    4.58
   1   0 -15    0.23    0.79
   1   0 -16    6.03    1.15
   1   0 -17    0.23    1.09
   1   0 -18  283.51    5.80
   1   0 -19    0.72    2.01
   1   0 -20   40.70    4.58
   1   0 -21    0.00    1.35
   1   0 -22   92.97    3.13
   1   0 -23    1.22    1.28
   1   0 -24    6.75    1.38
   1  -1  -2 4920.10   79.40
   1  -1  -3 7608.14  140.65
   1  -1  -4  114.77    3.85
   1  -1  -5  274.46    6.36
   1  -1  -6  326.89    7.71
   1  -1  -7   95.96    4.54
   1  -1  -8    2.63    1.78
   1  -1  -9   95.64    3.36
   1  -1 -10  889.37   19.03
   1  -1 -11   15.91    2.04
   1  -1 -12  253.18    4.58
   1  -1 -13  972.00   14.46
   1  -1 -14    3.13    0.96
   1  -1 -15  532.39    8.20
   1  -1 -16  389.29    7.21
   1  -1 -17    5.30    1.35
   1  -1 -18   37.08    2.63
   1  -1 -19    3.13    1.45
   1  -1 -20    1.94    1.28
   1  -1 -21   15.64    2.11
   1  -1 -22  272.45    5.07
   1  -1 -23   16.14    2.11
   1  -1 -24   37.35    2.21
   1  -2  -2 5509.89  102.09
   1  -2  -3 1790.20   18.15
   1  -2  -4 4044.53   58.98
   1  -2  -5  181.03    5.20
   1  -2  -6   15.18    2.27
   1  -2  -7 2064.24   34.02
   1  -2  -8  227.40    8.20
   1  -2  -9    9.65    1.58
   1  -2 -10   54.44    2.63
   1  -2 -11  144.54    5.30
   1  -2 -12    4.35    1.02
   1  -2 -13  118.75    2.90
   1  -2 -14  596.44    9.39
   1  -2 -15   78.54    3.85
   1  -2 -16   97.08    2.90
   1  -2 -17  298.47    6.49
   1  -2 -18  124.55    3.62
   1  -2 -19  130.81    5.07
   1  -2 -20    3.13    1.28
   1  -2 -21  100.94    3.13
   1  -2 -22   19.03    2.63
   1  -2 -23   23.61    2.90
   1  -2 -24   12.51    1.84
   1  -3  -2  128.60    3.85
   1  -3  -3 2377.26   31.75
   1  -3  -4 2928.48   34.02
   1  -3  -5 2042.01   27.24
   1  -3  -6  395.39    9.75
   1  -3  -7 1889.79   33.72
   1  -3  -8  179.71    6.49
   1  -3  -9    7.71    2.07
   1  -3 -10  206.68    7.48
   1  -3 -11  603.42   13.96
   1  -3 -12   56.12    2.40
   1  -3 -13   65.27    2.90
   1  -3 -14  137.79    4.35
   1  -3 -15  111.28    2.90
   1  -3 -16    0.72    1.05
   1  -3 -17   16.37    2.31
   1  -3 -18    0.23    1.22
   1  -3 -19  208.13    3.85
   1  -3 -20    0.49    1.22
   1  -3 -21    0.49    1.25
   1  -3 -22   14.95    2.01
   1  -3 -23   22.66    2.04
   1  -3 -24    0.72    1.78
   1  -4  -2    7.48    1.71
   1  -4  -3   46.73    3.16
   1  -4  -4 2168.33   29.47
   1  -4  -5  189.86    6.13
   1  -4  -6    8.66    2.21
   1  -4  -7  363.51    9.65
   1  -4  -8  559.09   11.56
   1  -4  -9  135.39    5.30
   1  -4 -10  205.96    6.75
   1  -4 -11  432.63    9.16
   1  -4 -12  191.50    4.81
   1  -4 -13   21.21    1.84
   1  -4 -14    2.17    0.96
   1  -4 -15  229.57    4.58
   1  -4 -16   97.81    4.08
   1  -4 -17   59.97    3.13
   1  -4 -18   17.82    2.40
   1  -4 -19   79.00    2.63
   1  -4 -20   21.67    2.01
   1  -4 -21   31.32    2.14
   1  -4 -22   67.68    2.63
   1  -4 -23    9.16    1.58
   1  -4 -24    2.90    2.37
   1  -5  -2  553.49   13.60
   1  -5  -3  100.25    4.54
   1  -5  -4  624.27   16.80
   1  -5  -5  784.58   19.27
   1  -5  -6  232.47    8.92
   1  -5  -7   24.80    2.11
   1  -5  -8  561.99   11.07
   1  -5  -9    0.72    0.99
   1  -5 -10   45.05    2.90
   1  -5 -11    1.94    1.12
   1  -5 -12   59.97    2.63
   1  -5 -13  135.88    3.36
   1  -5 -14  215.61    5.07
   1  -5 -15    8.43    1.32
   1  -5 -16  107.43    3.13
   1  -5 -17   96.36    3.13
   1  -5 -18   28.19    2.31
   1  -5 -19   23.12    2.01
   1  -5 -20    2.90    1.32
   1  -5 -21    4.35    1.38
   1  -5 -22    1.22    1.28
   1  -5 -23   28.91    2.40
   1  -5 -24   40.97    4.81
   1  -6  -2   55.59    3.85
   1  -6  -3  706.76   15.18
   1  -6  -4  237.51   12.51
   1  -6  -5   72.25    3.13
   1  -6  -6 1240.83   26.51
   1  -6  -7    9.65    1.65
   1  -6  -8  143.32    4.35
   1  -6  -9    2.40    1.12
   1  -6 -10  793.01   10.60
   1  -6 -11  124.06    3.62
   1  -6 -12  142.14    4.35
   1  -6 -13    4.35    0.96
   1  -6 -14   16.63    1.65
   1  -6 -15    7.48    1.28
   1  -6 -16   62.87    2.40
   1  -6 -17   85.03    3.62
   1  -6 -18  344.70    6.98
   1  -6 -19   30.59    2.21
   1  -6 -20    6.75    1.42
   1  -6 -21   28.91    2.14
   1  -6 -22  109.86    3.13
   1  -6 -23    0.00    1.28
   1  -7  -2 1301.29   24.07
   1  -7  -3  528.04   12.28
   1  -7  -4  977.30   20.95
   1  -7  -5 2018.43   45.78
   1  -7  -6    3.62    1.22
   1  -7  -7  456.74   10.60
   1  -7  -8   45.78    2.63
   1  -7  -9    3.85    1.02
   1  -7 -10  179.71    5.53
   1  -7 -11  146.22    5.30
   1  -7 -12    3.36    1.02
   1  -7 -13  181.89    5.07
   1  -7 -14  804.57   10.83
   1  -7 -15   41.20    2.17
   1  -7 -16  114.90    3.62
   1  -7 -17   92.01    3.13
   1  -7 -18    0.00    1.22
   1  -7 -19  214.62    4.58
   1  -7 -20    9.39    1.65
   1  -7 -21   95.87    2.90
   1  -7 -22   41.43    2.24
   1  -7 -23    2.63    1.38
   1  -8  -2  116.84    4.08
   1  -8  -3  103.34    4.58
   1  -8  -4  996.07   24.07
   1  -8  -5  235.83    7.94
   1  -8  -6   59.25    3.62
   1  -8  -7   53.98    3.36
   1  -8  -8  304.49    9.16
   1  -8  -9   93.46    3.62
   1  -8 -10    7.94    1.28
   1  -8 -11   45.51    2.40
   1  -8 -12   14.69    1.58
   1  -8 -13   45.28    2.11
   1  -8 -14  119.48    3.13
   1  -8 -15    3.36    1.19
   1  -8 -16   67.94    2.90
   1  -8 -17   10.37    1.58
   1  -8 -18   66.49    2.90
   1  -8 -19   -0.49    1.25
   1  -8 -20    1.68    1.28
   1  -8 -21    0.72    1.28
   1  -8 -22    0.23    1.22
   1  -8 -23    0.96    1.35
   1  -9  -2  496.95   12.05
   1  -9  -3    8.92    1.88
   1  -9  -4  176.09    8.92
   1  -9  -5  239.91    6.75
   1  -9  -6   27.96    1.84
   1  -9  -7   53.48    2.34
   1  -9  -8   17.36    1.75
   1  -9  -9   15.91    1.65
   1  -9 -10  100.71    3.13
   1  -9 -11  990.54   15.91
   1  -9 -12  266.92    7.48
   1  -9 -13  333.14    7.71
   1  -9 -14  149.84    4.81
   1  -9 -15    2.17    1.22
   1  -9 -16  160.68    5.07
   1  -9 -17    6.03    1.32
   1  -9 -18    3.36    1.38
   1  -9 -19    3.62    1.35
   1  -9 -20    5.53    1.48
   1  -9 -21   62.41    3.13
   1  -9 -22   37.08    2.90
   1 -10  -2  394.60    8.66
   1 -10  -3 1640.46   20.95
   1 -10  -4   88.16    3.85
   1 -10  -5  264.97    5.07
   1 -10  -6  141.64    4.08
   1 -10  -7  684.86   11.07
   1 -10  -8  204.51    4.35
   1 -10  -9    2.63    0.89
   1 -10 -10    0.49    0.89
   1 -10 -11  145.26    4.58
   1 -10 -12   45.05    2.40
   1 -10 -13   14.95    1.88
   1 -10 -14    7.94    1.65
   1 -10 -15  109.60    4.58
   1 -10 -16    0.49    1.25
   1 -10 -17    1.22    1.35
   1 -10 -18    1.45    1.38
   1 -10 -19   18.54    1.98
   1 -10 -20    7.21    1.61
   1 -10 -21    5.07    1.94
   1 -10 -22    0.96    1.25
   1 -11  -2   49.14    2.63
   1 -11  -3  755.67   13.73
   1 -11  -4   76.37    3.13
   1 -11  -5    7.48    1.19
   1 -11  -6   74.92    2.90
   1 -11  -7    4.58    1.05
   1 -11  -8  229.34    5.07
   1 -11  -9    1.68    0.99
   1 -11 -10    2.63    1.02
   1 -11 -11  137.06    3.85
   1 -11 -12   76.11    2.63
   1 -11 -13  136.11    4.35
   1 -11 -14   19.99    2.40
   1 -11 -15  318.95    5.30
   1 -11 -16   58.78    3.36
   1 -11 -17    0.49    1.32
   1 -11 -18   23.84    2.40
   1 -11 -19   44.33    3.13
   1 -11 -20    1.68    1.48
   1 -11 -21   64.55    3.36
   1 -12  -2  224.50    5.30
   1 -12  -3  108.87    3.62
   1 -12  -4   45.05    2.40
   1 -12  -5    1.22    0.92
   1 -12  -6  162.85    3.85
   1 -12  -7  172.47    4.81
   1 -12  -8  101.43    4.08
   1 -12  -9  112.73    4.81
   1 -12 -10   33.49    2.11
   1 -12 -11  264.97    6.26
   1 -12 -12   37.35    3.13
   1 -12 -13   10.11    1.71
   1 -12 -14   30.10    2.07
   1 -12 -15   -0.49    1.22
   1 -12 -16   -0.23    1.68
   1 -12 -17   37.08    4.35
   1 -12 -18   17.82    2.90
   1 -12 -19   16.37    2.01
   1 -12 -20    0.96    2.21
   1 -13  -2   55.89    2.90
   1 -13  -3   36.39    1.81
   1 -13  -4   65.54    3.36
   1 -13  -5   43.11    2.37
   1 -13  -6  147.67    4.81
   1 -13  -7    0.00    0.96
   1 -13  -8  151.52    5.07
   1 -13  -9    0.00    1.05
   1 -13 -10    0.96    1.19
   1 -13 -11  106.24    5.07
   1 -13 -12   55.16    3.62
   1 -13 -13  103.11    2.90
   1 -13 -14   54.21    3.13
   1 -13 -15   17.09    2.01
   1 -13 -16    5.07    1.58
   1 -13 -17    2.40    1.65
   1 -13 -18    0.00    1.28
   1 -13 -19    0.96    1.35
   1 -13 -20    2.63    1.28
   1 -14  -2    0.72    0.99
   1 -14  -3    0.96    0.99
   1 -14  -4  319.41    7.94
   1 -14  -5   38.53    3.13
   1 -14  -6  169.83    5.30
   1 -14  -7   44.56    2.27
   1 -14  -8  301.36    7.21
   1 -14  -9   32.04    2.21
   1 -14 -10    2.63    1.25
   1 -14 -11  109.86    4.08
   1 -14 -12   14.23    2.37
   1 -14 -13   41.43    2.40
   1 -14 -14    0.23    1.28
   1 -14 -15    2.63    1.32
   1 -14 -16   17.09    2.90
   1 -14 -17  102.39    6.49
   1 -14 -18   17.82    2.17
   1 -14 -19   15.41    1.78
   1 -15  -2  301.36    8.20
   1 -15  -3  208.86    6.03
   1 -15  -4  283.05    5.53
   1 -15  -5  131.30    4.08
   1 -15  -6  153.43    5.30
   1 -15  -7   60.46    3.13
   1 -15  -8  381.32    7.71
   1 -15  -9    4.58    1.22
   1 -15 -10    6.03    1.28
   1 -15 -11  101.66    3.36
   1 -15 -12    9.65    1.58
   1 -15 -13   20.71    1.98
   1 -15 -14  143.32    3.36
   1 -15 -15   94.42    5.30
   1 -15 -16  151.29    4.08
   1 -15 -17   16.14    1.84
   1 -15 -18   25.29   22.89
   1 -16  -2    6.26    1.38
   1 -16  -3  257.76    8.43
   1 -16  -4    2.63    1.28
   1 -16  -5   67.22    3.36
   1 -16  -6  155.87    4.35
   1 -16  -7  186.69    6.26
   1 -16  -8   39.75    2.63
   1 -16  -9   30.59    2.14
   1 -16 -10   99.98    5.07
   1 -16 -11    2.17    1.28
   1 -16 -12   19.27    2.11
   1 -16 -13    0.72    1.32
   1 -16 -14   20.22    2.01
   1 -16 -15   72.52    3.36
   1 -16 -16   16.37    3.36
   1 -17  -2  197.76    6.49
   1 -17  -3   19.99    2.40
   1 -17  -4    3.36    1.32
   1 -17  -5  195.62    5.30
   1 -17  -6   20.95    2.07
   1 -17  -7    9.39    1.65
   1 -17  -8    1.45    1.28
   1 -17  -9    0.23    1.25
   1 -17 -10   43.37    2.90
   1 -17 -11  166.70    3.85
   1 -17 -12   35.40    2.21
   1 -17 -13   24.57    2.11
   1 -17 -14   58.78    2.90
   1 -17 -15    6.26    1.38
   1 -18  -2   28.91    2.63
   1 -18  -3    2.40    1.38
   1 -18  -4   22.16    2.11
   1 -18  -5   11.07    1.71
   1 -18  -6    0.72    1.28
   1 -18  -7   14.46    1.98
   1 -18  -8    1.94    1.32
   1 -18  -9   35.67    2.27
   1 -18 -10   18.80    1.98
   1 -18 -11   13.50    1.94
   1 -18 -12   13.96    2.21
   1 -18 -13   13.50    2.90
   1 -19  -2   46.24    3.13
   1 -19  -3    3.36    1.38
   1 -19  -4  100.94    4.08
   1 -19  -5   17.09    2.27
   1 -19  -6   -0.23    1.28
   1 -19  -7    0.72    1.28
   1 -19  -8   16.63    2.11
   1 -19  -9    2.90    1.28
   1 -19 -10   62.41    3.36
   1 -19 -11   33.00    2.31
   1 -19 -12    9.88    2.11
   1 -20  -2   38.30    3.13
   1 -20  -3  147.67    3.13
   1 -20  -4   63.10    3.36
   1 -20  -5   19.99    2.90
   1 -20  -6   24.07    2.27
   1 -20  -7   10.37    1.65
   1 -20  -8   25.29    2.21
   1 -20  -9   -0.72    1.25
   1 -20 -10    5.80    1.25
   1 -21  -2   34.45    2.63
   1 -21  -3    4.08    1.61
   1 -21  -4    0.49    1.65
   1 -21  -5    2.63    1.38
   1 -21  -6    1.68    1.15
   2   0  -2  465.47    5.43
   2   0  -3    0.69    0.86
   2   0  -4    2.04    1.12
   2   0  -5    0.23    1.09
   2   0  -6    4.08    1.58
   2   0  -7    0.23    1.48
   2   0  -8  140.92    6.03
   2   0  -9    0.00    0.92
   2   0 -10 1977.23   43.37
   2   0 -11    0.23    1.09
   2   0 -12  475.05    7.71
   2   0 -13    0.00    0.89
   2   0 -14  172.01    4.08
   2   0 -15    0.00    0.79
   2   0 -16  181.16    4.08
   2   0 -17    0.23    0.96
   2   0 -18  166.93    4.58
   2   0 -19    0.23    1.75
   2   0 -20    6.98    1.38
   2   0 -21    0.00    1.28
   2   0 -22   86.71    3.13
   2   0 -23    0.72    1.28
   2   0 -24   12.05    2.63
   2   0 -25    0.96    1.25
   2  -1  -2 1913.83   22.00
   2  -1  -3 9502.21  183.73
   2  -1  -4  653.05   10.44
   2  -1  -5 3189.34   40.84
   2  -1  -6 1539.10   22.23
   2  -1  -7  312.92    8.43
   2  -1  -8   64.81    4.35
   2  -1  -9  359.89    8.20
   2  -1 -10  619.33   13.01
   2  -1 -11  205.00    6.03
   2  -1 -12   32.04    1.84
   2  -1 -13   47.23    2.01
   2  -1 -14  152.25    2.90
   2  -1 -15  665.10    9.88
   2  -1 -16  107.69    2.90
   2  -1 -17   58.29    2.40
   2  -1 -18  143.32    4.81
   2  -1 -19   31.81    2.21
   2  -1 -20   10.11    1.94
   2  -1 -21   15.41    2.07
   2  -1 -22  120.93    3.36
   2  -1 -23    6.98    1.88
   2  -1 -24   14.69    1.88
   2  -1 -25    9.65    3.85
   2  -2  -2  142.47    3.39
   2  -2  -3  133.84    3.62
   2  -2  -4  302.15    6.13
   2  -2  -5  172.40    5.01
   2  -2  -6    1.58    1.42
   2  -2  -7 2890.71   48.18
   2  -2  -8  109.14    3.62
   2  -2  -9  279.66    6.98
   2  -2 -10  326.16    7.94
   2  -2 -11  649.20   14.95
   2  -2 -12    0.72    0.92
   2  -2 -13   32.04    1.91
   2  -2 -14  467.08    7.48
   2  -2 -15  205.23    3.85
   2  -2 -16    1.68    1.02
   2  -2 -17   67.94    2.63
   2  -2 -18   59.51    2.40
   2  -2 -19  172.24    4.08
   2  -2 -20    4.08    1.51
   2  -2 -21    0.49    1.25
   2  -2 -22   23.38    2.11
   2  -2 -23    6.03    1.42
   2  -2 -24    0.49    1.28
   2  -2 -25   37.08    2.24
   2  -3  -2 3114.48   34.02
   2  -3  -3  117.73    3.85
   2  -3  -4 2104.38   27.24
   2  -3  -5  276.50    7.05
   2  -3  -6  686.64   13.37
   2  -3  -7 1156.03   26.51
   2  -3  -8  454.07    9.16
   2  -3  -9  370.49    8.66
   2  -3 -10   54.21    2.90
   2  -3 -11    0.49    1.15
   2  -3 -12   13.01    1.61
   2  -3 -13   47.46    2.63
   2  -3 -14  426.38    7.94
   2  -3 -15   40.24    2.34
   2  -3 -16  477.19    8.43
   2  -3 -17  285.46    5.80
   2  -3 -18   10.11    1.61
   2  -3 -19  216.33    6.26
   2  -3 -20    0.00    1.19
   2  -3 -21   43.60    2.27
   2  -3 -22   40.47    2.31
   2  -3 -23   17.36    1.94
   2  -3 -24   51.08    3.36
   2  -4  -2 1827.85   29.47
   2  -4  -3  426.67    9.98
   2  -4  -4    2.73    1.48
   2  -4  -5  493.59   11.07
   2  -4  -6 2254.75   40.97
   2  -4  -7    0.00    1.05
   2  -4  -8  525.14   10.60
   2  -4  -9  178.49    5.30
   2  -4 -10    1.94    1.61
   2  -4 -11  585.60    7.94
   2  -4 -12  133.71    3.62
   2  -4 -13  356.53    6.75
   2  -4 -14   63.10    2.90
   2  -4 -15  120.43    3.62
   2  -4 -16    6.26    1.19
   2  -4 -17  160.68    4.35
   2  -4 -18   41.92    2.40
   2  -4 -19   16.63    1.94
   2  -4 -20   95.87    2.90
   2  -4 -21   27.47    2.14
   2  -4 -22   16.37    1.98
   2  -4 -23    2.17    1.51
   2  -4 -24   64.32    2.40
   2  -5  -2  192.59    6.36
   2  -5  -3   28.65    3.13
   2  -5  -4  659.31   14.69
   2  -5  -5 1102.58   23.38
   2  -5  -6  159.72    6.03
   2  -5  -7 1806.21   36.13
   2  -5  -8  269.55    6.75
   2  -5  -9   38.79    2.40
   2  -5 -10   15.18    2.04
   2  -5 -11  343.98    6.98
   2  -5 -12    1.94    0.99
   2  -5 -13  296.79    6.26
   2  -5 -14   29.15    1.75
   2  -5 -15    4.08    1.05
   2  -5 -16   19.99    1.78
   2  -5 -17  139.47    3.36
   2  -5 -18  138.51    3.62
   2  -5 -19  211.76    3.85
   2  -5 -20    1.45    1.28
   2  -5 -21    1.45    1.28
   2  -5 -22    0.23    1.28
   2  -5 -23   13.24    1.88
   2  -5 -24    0.00    1.28
   2  -6  -2  137.30    5.80
   2  -6  -3    6.03    1.42
   2  -6  -4  464.91   11.79
   2  -6  -5    3.13    1.12
   2  -6  -6 1278.17   26.51
   2  -6  -7  190.32    5.80
   2  -6  -8 1631.31   36.13
   2  -6  -9   13.50    1.88
   2  -6 -10  121.42    3.62
   2  -6 -11  169.60    4.08
   2  -6 -12  359.65    6.49
   2  -6 -13   62.41    2.11
   2  -6 -14   27.70    2.11
   2  -6 -15   33.49    1.91
   2  -6 -16  104.79    3.85
   2  -6 -17   32.77    2.11
   2  -6 -18  371.44    6.75
   2  -6 -19    3.36    1.28
   2  -6 -20   70.11    2.63
   2  -6 -21   29.38    2.17
   2  -6 -22   58.29    2.40
   2  -6 -23    0.23    1.25
   2  -6 -24    4.08    3.85
   2  -7  -2  333.64    8.20
   2  -7  -3  215.11    5.80
   2  -7  -4 2835.28   67.45
   2  -7  -5  305.94    6.98
   2  -7  -6    3.62    1.22
   2  -7  -7   33.23    2.31
   2  -7  -8  338.22    9.16
   2  -7  -9   82.40    3.36
   2  -7 -10   15.64    1.65
   2  -7 -11   52.03    2.21
   2  -7 -12    5.53    1.02
   2  -7 -13  108.15    3.36
   2  -7 -14  371.71    7.21
   2  -7 -15    2.40    1.05
   2  -7 -16  150.57    3.62
   2  -7 -17    1.94    1.22
   2  -7 -18   73.47    2.63
   2  -7 -19   61.68    2.40
   2  -7 -20    0.00    1.28
   2  -7 -21    5.80    1.38
   2  -7 -22    0.00    1.25
   2  -7 -23   14.46    1.88
   2  -8  -2  176.09    4.81
   2  -8  -3  423.97    9.39
   2  -8  -4    1.22    1.28
   2  -8  -5   46.24    3.36
   2  -8  -6  112.99    4.08
   2  -8  -7  246.20    5.07
   2  -8  -8    1.22    0.96
   2  -8  -9   68.89    2.63
   2  -8 -10  142.60    4.58
   2  -8 -11   91.29    3.36
   2  -8 -12    0.49    0.92
   2  -8 -13   37.08    2.21
   2  -8 -14  197.53    6.03
   2  -8 -15   55.39    2.90
   2  -8 -16    5.07    1.35
   2  -8 -17   29.38    2.27
   2  -8 -18   22.39    1.94
   2  -8 -19   24.34    2.11
   2  -8 -20   22.16    2.11
   2  -8 -21  147.44    4.08
   2  -8 -22   48.67    2.31
   2  -8 -23    8.43    1.65
   2  -9  -2  120.20    4.08
   2  -9  -3   49.14    3.62
   2  -9  -4  258.72    7.94
   2  -9  -5   89.12    3.62
   2  -9  -6  389.52    6.75
   2  -9  -7   98.27    4.08
   2  -9  -8   11.79    1.55
   2  -9  -9  144.05    4.08
   2  -9 -10  197.76    5.07
   2  -9 -11  381.82    7.21
   2  -9 -12    4.35    1.09
   2  -9 -13   92.28    3.36
   2  -9 -14   26.97    1.98
   2  -9 -15    0.23    1.12
   2  -9 -16   51.54    2.40
   2  -9 -17  132.98    3.13
   2  -9 -18   82.13    2.63
   2  -9 -19    7.21    1.58
   2  -9 -20    6.49    1.45
   2  -9 -21  148.89    3.85
   2  -9 -22   33.23    2.17
   2 -10  -2    0.23    0.89
   2 -10  -3  379.88    7.71
   2 -10  -4    8.43    1.22
   2 -10  -5    3.62    1.05
   2 -10  -6    5.07    1.22
   2 -10  -7    2.90    0.96
   2 -10  -8   33.72    2.40
   2 -10  -9    8.20    1.19
   2 -10 -10   85.53    3.62
   2 -10 -11   79.50    3.13
   2 -10 -12   20.95    1.84
   2 -10 -13   21.67    2.21
   2 -10 -14    3.62    1.58
   2 -10 -15   49.63    3.36
   2 -10 -16   52.03    3.36
   2 -10 -17   19.99    2.40
   2 -10 -18   61.19    3.85
   2 -10 -19    9.16    2.11
   2 -10 -20    0.49    1.42
   2 -10 -21  140.92    3.36
   2 -10 -22   -0.49    1.55
   2 -11  -2  247.65    6.75
   2 -11  -3 1859.20   33.72
   2 -11  -4    1.45    0.89
   2 -11  -5 1350.43   23.38
   2 -11  -6   72.98    2.63
   2 -11  -7   30.36    1.65
   2 -11  -8  146.22    3.62
   2 -11  -9   27.70    2.40
   2 -11 -10    0.72    0.96
   2 -11 -11   21.93    1.75
   2 -11 -12    1.94    1.09
   2 -11 -13  272.68    7.48
   2 -11 -14    3.13    1.25
   2 -11 -15  496.72   10.60
   2 -11 -16   95.64    4.35
   2 -11 -17   19.27    1.94
   2 -11 -18   82.13    5.30
   2 -11 -19    0.72    1.32
   2 -11 -20   -0.96    1.28
   2 -11 -21    6.26    1.42
   2 -12  -2   29.87    1.65
   2 -12  -3   42.88    1.91
   2 -12  -4   85.26    3.13
   2 -12  -5   55.66    2.40
   2 -12  -6   31.32    2.63
   2 -12  -7  181.89    4.35
   2 -12  -8    2.17    1.02
   2 -12  -9   53.48    3.13
   2 -12 -10   75.65    3.13
   2 -12 -11   93.69    3.85
   2 -12 -12   51.54    2.90
   2 -12 -13   48.67    3.36
   2 -12 -14    1.45    1.22
   2 -12 -15   -0.23    1.22
   2 -12 -16   -0.23    1.25
   2 -12 -17   29.15    3.36
   2 -12 -18    6.26    2.01
   2 -12 -19   64.55    2.40
   2 -12 -20    6.75    1.48
   2 -12 -21   10.83    1.68
   2 -13  -2  131.30    4.08
   2 -13  -3   40.70    2.01
   2 -13  -4   16.63    1.61
   2 -13  -5    5.53    1.12
   2 -13  -6  407.60    7.48
   2 -13  -7    1.22    1.05
   2 -13  -8  622.72   10.37
   2 -13  -9   29.64    1.94
   2 -13 -10   45.28    2.40
   2 -13 -11   29.15    2.07
   2 -13 -12   28.19    2.24
   2 -13 -13    2.17    1.22
   2 -13 -14    6.03    1.38
   2 -13 -15   23.12    2.01
   2 -13 -16   95.64    3.13
   2 -13 -17   10.83    1.71
   2 -13 -18  118.75    3.13
   2 -13 -19    5.53    1.68
   2 -13 -20    1.94    1.38
   2 -14  -2  147.17    4.35
   2 -14  -3    0.72    1.02
   2 -14  -4   52.99    3.36
   2 -14  -5  179.71    3.85
   2 -14  -6   82.13    3.62
   2 -14  -7  428.78    9.65
   2 -14  -8    0.72    1.12
   2 -14  -9   58.06    2.63
   2 -14 -10    2.17    1.22
   2 -14 -11   57.83    2.90
   2 -14 -12    4.08    1.25
   2 -14 -13   13.24    1.75
   2 -14 -14   70.11    3.62
   2 -14 -15    9.88    1.75
   2 -14 -16    1.94    1.45
   2 -14 -17   64.32    3.85
   2 -14 -18    4.81    2.01
   2 -14 -19   99.26    3.13
   2 -15  -2   89.61    4.08
   2 -15  -3  131.53    5.07
   2 -15  -4   66.95    3.13
   2 -15  -5   78.05    3.85
   2 -15  -6    9.65    1.61
   2 -15  -7   15.91    1.91
   2 -15  -8   85.03    3.85
   2 -15  -9    1.45    1.12
   2 -15 -10    1.68    1.19
   2 -15 -11    1.94    1.19
   2 -15 -12    6.75    1.38
   2 -15 -13   14.46    1.81
   2 -15 -14    3.36    1.75
   2 -15 -15   54.21    2.63
   2 -15 -16   28.91    2.37
   2 -15 -17    9.39    1.65
   2 -15 -18   61.91    2.63
   2 -16  -2    0.49    1.22
   2 -16  -3   48.67    3.13
   2 -16  -4   57.57    3.36
   2 -16  -5   33.23    2.40
   2 -16  -6   57.10    2.40
   2 -16  -7   13.24    1.75
   2 -16  -8  111.28    4.08
   2 -16  -9   15.64    1.84
   2 -16 -10   23.38    1.94
   2 -16 -11   57.57    2.37
   2 -16 -12   11.79    1.75
   2 -16 -13   32.50    2.63
   2 -16 -14    2.40    1.35
   2 -16 -15   16.86    2.63
   2 -16 -16   46.50    5.80
   2 -16 -17    2.90    4.81
   2 -17  -2   11.79    1.75
   2 -17  -3   22.16    2.11
   2 -17  -4   22.89    1.98
   2 -17  -5    0.96    1.22
   2 -17  -6    5.30    1.32
   2 -17  -7  180.44    4.35
   2 -17  -8  104.79    3.62
   2 -17  -9    1.45    1.22
   2 -17 -10  137.56    4.08
   2 -17 -11    5.30    1.32
   2 -17 -12   11.56    1.84
   2 -17 -13    1.94    1.35
   2 -17 -14    2.90    1.25
   2 -17 -15    3.13    1.32
   2 -18  -2    5.30    1.32
   2 -18  -3   59.97    2.63
   2 -18  -4    8.43    2.21
   2 -18  -5    0.00    1.22
   2 -18  -6   98.53    3.13
   2 -18  -7    1.45    1.28
   2 -18  -8   68.17    2.63
   2 -18  -9    4.81    1.32
   2 -18 -10   55.89    3.62
   2 -18 -11   60.23    3.85
   2 -18 -12   25.06    2.01
   2 -18 -13    4.35    1.38
   2 -18 -14   11.33    2.11
   2 -19  -2  268.10    6.49
   2 -19  -3   29.15    3.36
   2 -19  -4  493.82   10.37
   2 -19  -5   45.78    2.63
   2 -19  -6   14.69    1.94
   2 -19  -7    1.22    1.22
   2 -19  -8    6.75    1.61
   2 -19  -9   15.91    2.11
   2 -19 -10    0.23    1.22
   2 -19 -11   24.80    2.37
   2 -19 -12    0.23    1.25
   2 -20  -2    1.45    1.22
   2 -20  -3    8.43    1.75
   2 -20  -4    0.00    1.22
   2 -20  -5    0.96    1.51
   2 -20  -6   13.50    1.94
   2 -20  -7    4.08    1.28
   2 -20  -8   49.14    3.13
   2 -20  -9    8.43    1.78
   2 -21  -2   12.05    1.84
   2 -21  -3   28.91    5.80
   2 -21  -4    2.63    1.42
   3   0  -4 1412.08   21.77
   3   0  -5    0.23    1.05
   3   0  -6 3832.57   60.23
   3   0  -7    0.72    1.02
   3   0  -8  513.81    9.88
   3   0  -9   -0.49    0.99
   3   0 -10  680.52   15.91
   3   0 -11    1.68    1.58
   3   0 -12   35.17    2.01
   3   0 -13   -0.49    0.92
   3   0 -14   67.94    1.94
   3   0 -15    0.00    0.79
   3   0 -16    8.66    1.25
   3   0 -17    0.23    0.99
   3   0 -18  339.17    7.71
   3   0 -19    0.00    1.22
   3   0 -20    7.71    1.28
   3   0 -21    0.49    1.12
   3   0 -22   42.38    2.40
   3   0 -23    1.22    1.35
   3   0 -24  124.55    3.36
   3   0 -25    1.22    1.88
   3  -1  -4  130.45    3.62
   3  -1  -5 2166.10   28.91
   3  -1  -6   72.75    3.85
   3  -1  -7  346.65    8.66
   3  -1  -8  963.08   18.08
   3  -1  -9   34.45    2.24
   3  -1 -10  490.69    9.65
   3  -1 -11   60.23    2.90
   3  -1 -12  273.17    4.81
   3  -1 -13  271.73    5.30
   3  -1 -14  380.60    5.80
   3  -1 -15   18.31    1.55
   3  -1 -16  142.37    3.13
   3  -1 -17   48.41    2.17
   3  -1 -18    3.62    1.22
   3  -1 -19    9.16    1.65
   3  -1 -20   49.63    2.63
   3  -1 -21    2.63    1.28
   3  -1 -22   56.38    2.63
   3  -1 -23   18.80    2.63
   3  -1 -24   32.04    2.14
   3  -1 -25   46.73    2.40
   3  -2  -4 4389.30   83.94
   3  -2  -5  101.17    4.08
   3  -2  -6    6.75    1.88
   3  -2  -7   18.08    2.63
   3  -2  -8    0.23    0.92
   3  -2  -9  726.29   15.18
   3  -2 -10  198.02    6.75
   3  -2 -11   42.88    2.40
   3  -2 -12    0.96    0.96
   3  -2 -13   20.22    1.71
   3  -2 -14  185.24    3.36
   3  -2 -15   55.16    2.63
   3  -2 -16  438.89    6.98
   3  -2 -17    1.45    1.05
   3  -2 -18  100.94    3.13
   3  -2 -19    4.35    1.38
   3  -2 -20   16.37    1.84
   3  -2 -21   40.47    2.40
   3  -2 -22    0.49    1.22
   3  -2 -23    0.49    1.25
   3  -2 -24   21.67    2.90
   3  -2 -25   12.78    2.63
   3  -3  -4  246.43    6.49
   3  -3  -5    9.16    1.88
   3  -3  -6   59.25    3.36
   3  -3  -7  990.08   16.37
   3  -3  -8  560.31   11.56
   3  -3  -9   40.70    3.13
   3  -3 -10  252.92    6.03
   3  -3 -11 1188.56   17.09
   3  -3 -12    8.92    1.32
   3  -3 -13   35.17    2.11
   3  -3 -14   18.31    1.94
   3  -3 -15   19.50    1.98
   3  -3 -16    5.30    1.12
   3  -3 -17    3.13    1.12
   3  -3 -18    0.49    1.12
   3  -3 -19   33.00    2.34
   3  -3 -20   22.39    1.91
   3  -3 -21   32.27    2.24
   3  -3 -22   80.45    2.63
   3  -3 -23    3.13    1.32
   3  -3 -24   18.31    1.94
   3  -3 -25   13.50    1.94
   3  -4  -4  190.55    6.03
   3  -4  -5  108.64    4.35
   3  -4  -6  220.42    5.30
   3  -4  -7 3801.29   96.36
   3  -4  -8 1382.24   24.07
   3  -4  -9  377.73    8.43
   3  -4 -10 1010.30   21.21
   3  -4 -11  117.80    3.36
   3  -4 -12   83.58    3.36
   3  -4 -13   52.76    1.98
   3  -4 -14   98.27    2.90
   3  -4 -15   12.05    1.51
   3  -4 -16    8.92    1.42
   3  -4 -17  254.63    6.03
   3  -4 -18  262.34    5.80
   3  -4 -19  318.69    5.07
   3  -4 -20   70.84    2.40
   3  -4 -21   48.90    2.37
   3  -4 -22   41.66    2.27
   3  -4 -23   17.82    2.01
   3  -4 -24   36.13    2.21
   3  -5  -4    5.53    1.65
   3  -5  -5  176.81    6.26
   3  -5  -6    7.94    1.38
   3  -5  -7    0.23    0.96
   3  -5  -8   21.44    2.01
   3  -5  -9  149.84    4.35
   3  -5 -10  207.64    4.58
   3  -5 -11  900.44   19.76
   3  -5 -12   17.09    1.75
   3  -5 -13    6.75    1.12
   3  -5 -14    8.92    1.25
   3  -5 -15  203.32    4.35
   3  -5 -16   26.97    1.94
   3  -5 -17    2.17    1.19
   3  -5 -18   26.51    2.27
   3  -5 -19  127.42    3.13
   3  -5 -20    5.80    1.28
   3  -5 -21  234.87    4.35
   3  -5 -22   50.81    2.37
   3  -5 -23    5.07    1.35
   3  -5 -24    6.26    1.38
   3  -6  -4   57.57    2.63
   3  -6  -5  263.29    7.21
   3  -6  -6    0.23    0.92
   3  -6  -7  862.63   18.08
   3  -6  -8  366.14    8.20
   3  -6  -9    5.30    1.02
   3  -6 -10  486.84    7.94
   3  -6 -11    0.49    0.96
   3  -6 -12    0.49    0.86
   3  -6 -13  129.13    3.36
   3  -6 -14   55.39    2.40
   3  -6 -15   64.09    2.37
   3  -6 -16    4.08    1.19
   3  -6 -17   61.19    2.63
   3  -6 -18   64.81    2.63
   3  -6 -19   98.27    2.90
   3  -6 -20  143.09    3.36
   3  -6 -21   52.26    2.34
   3  -6 -22   67.45    2.63
   3  -6 -23    1.68    1.28
   3  -6 -24    1.45    1.28
   3  -7  -4   64.81    3.13
   3  -7  -5  234.87    7.71
   3  -7  -6  121.65    4.58
   3  -7  -7   13.73    1.84
   3  -7  -8   64.81    3.13
   3  -7  -9  114.41    4.35
   3  -7 -10   59.74    2.90
   3  -7 -11   39.75    2.21
   3  -7 -12   16.86    1.58
   3  -7 -13  194.40    4.58
   3  -7 -14  178.99    5.30
   3  -7 -15    6.49    1.22
   3  -7 -16   16.86    2.14
   3  -7 -17   -0.23    1.25
   3  -7 -18    0.72    1.12
   3  -7 -19    0.23    1.15
   3  -7 -20   -0.23    1.22
   3  -7 -21   47.69    2.34
   3  -7 -22   29.64    2.11
   3  -7 -23   16.86    1.91
   3  -8  -4  711.34   21.21
   3  -8  -5    0.23    0.89
   3  -8  -6  174.18    4.08
   3  -8  -7  190.05    6.49
   3  -8  -8  239.22    5.53
   3  -8  -9   74.43    3.62
   3  -8 -10   18.08    1.48
   3  -8 -11    0.49    0.86
   3  -8 -12   23.61    1.75
   3  -8 -13  245.94    6.75
   3  -8 -14  131.30    4.35
   3  -8 -15   93.46    4.81
   3  -8 -16   37.35    2.90
   3  -8 -17  299.42    7.48
   3  -8 -18   54.21    2.40
   3  -8 -19   84.54    3.13
   3  -8 -20    0.49    1.22
   3  -8 -21   55.66    2.37
   3  -8 -22    2.17    1.28
   3  -8 -23   15.64    2.40
   3  -9  -4  104.30    3.62
   3  -9  -5  685.09   10.83
   3  -9  -6  225.95    6.26
   3  -9  -7  548.03    9.65
   3  -9  -8  131.30    4.58
   3  -9  -9   28.91    2.01
   3  -9 -10  206.19    6.49
   3  -9 -11  259.94    6.49
   3  -9 -12  185.74    5.53
   3  -9 -13   21.44    2.04
   3  -9 -14    6.98    1.35
   3  -9 -15    6.03    1.32
   3  -9 -16   19.76    2.24
   3  -9 -17   31.09    2.37
   3  -9 -18    9.16    1.48
   3  -9 -19  144.77    5.07
   3  -9 -20    5.80    1.38
   3  -9 -21   51.80    2.90
   3  -9 -22   35.90    2.07
   3  -9 -23   52.53    2.27
   3 -10  -4   14.46    1.78
   3 -10  -5  443.24    6.26
   3 -10  -6  183.07    4.35
   3 -10  -7    9.39    1.28
   3 -10  -8   33.95    1.94
   3 -10  -9   34.68    2.27
   3 -10 -10   27.96    1.78
   3 -10 -11    0.49    0.96
   3 -10 -12    9.88    1.48
   3 -10 -13  189.33    5.80
   3 -10 -14   13.24    1.84
   3 -10 -15  484.44    9.65
   3 -10 -16   20.71    1.91
   3 -10 -17    0.72    1.22
   3 -10 -18   17.36    1.98
   3 -10 -19   12.51    1.98
   3 -10 -20    9.39    1.61
   3 -10 -21  135.15   16.63
   3 -10 -22    3.85    1.32
   3 -11  -4   13.96    1.75
   3 -11  -5   28.65    2.11
   3 -11  -6   32.77    1.91
   3 -11  -7    0.72    0.96
   3 -11  -8    0.23    0.92
   3 -11  -9    6.03    1.22
   3 -11 -10   89.38    3.62
   3 -11 -11   33.95    2.34
   3 -11 -12   24.57    2.01
   3 -11 -13  319.91   10.37
   3 -11 -14    7.21    1.88
   3 -11 -15    1.22    1.19
   3 -11 -16   26.97    2.04
   3 -11 -17   21.44    2.63
   3 -11 -18   14.46    2.37
   3 -11 -19   33.72    2.63
   3 -11 -20    6.26    1.32
   3 -11 -21    2.63    1.32
   3 -12  -4   24.34    1.65
   3 -12  -5   16.37    2.01
   3 -12  -6  337.99    7.48
   3 -12  -7   78.77    3.36
   3 -12  -8  330.74    7.71
   3 -12  -9  243.30    9.16
   3 -12 -10  108.64    5.30
   3 -12 -11   47.69    3.13
   3 -12 -12   33.23    2.17
   3 -12 -13   27.47    2.90
   3 -12 -14   12.78    1.78
   3 -12 -15   27.70    2.17
   3 -12 -16  164.76    6.49
   3 -12 -17   14.95    3.85
   3 -12 -18  477.91    6.98
   3 -12 -19   14.23    2.90
   3 -12 -20   11.33    2.34
   3 -12 -21  115.13    3.13
   3 -13  -4   41.20    2.11
   3 -13  -5   77.09    3.36
   3 -13  -6    0.72    1.05
   3 -13  -7   38.07    2.34
   3 -13  -8   63.10    2.90
   3 -13  -9    3.13    1.19
   3 -13 -10  482.03   13.24
   3 -13 -11   14.46    1.94
   3 -13 -12   12.05    1.65
   3 -13 -13    1.94    1.22
   3 -13 -14   78.28    2.63
   3 -13 -15    0.96    1.22
   3 -13 -16    2.63    1.22
   3 -13 -17    2.63    1.48
   3 -13 -18    0.49    1.38
   3 -13 -19   18.54    2.11
   3 -13 -20   41.66    4.81
   3 -14  -4   69.62    3.36
   3 -14  -5    6.03    1.22
   3 -14  -6   70.34    3.13
   3 -14  -7   55.16    2.63
   3 -14  -8  216.56    5.80
   3 -14  -9  231.75    6.26
   3 -14 -10  147.17    4.35
   3 -14 -11   66.26    2.40
   3 -14 -12   31.09    2.01
   3 -14 -13    0.72    1.19
   3 -14 -14  110.82    4.08
   3 -14 -15    0.49    1.19
   3 -14 -16    3.62    1.22
   3 -14 -17    0.72    1.15
   3 -14 -18  233.66    5.30
   3 -14 -19   15.41    2.01
   3 -15  -4    0.49    1.15
   3 -15  -5    0.72    1.25
   3 -15  -6    6.49    1.38
   3 -15  -7   37.35    2.21
   3 -15  -8    1.94    1.12
   3 -15  -9    4.58    1.22
   3 -15 -10   41.20    2.63
   3 -15 -11   33.72    2.07
   3 -15 -12    2.17    1.22
   3 -15 -13    3.62    1.25
   3 -15 -14    4.81    1.48
   3 -15 -15    0.72    1.15
   3 -15 -16   47.69    2.14
   3 -15 -17    0.00    1.15
   3 -15 -18   20.71    2.01
   3 -16  -4   28.65    2.17
   3 -16  -5   19.99    2.01
   3 -16  -6   26.97    1.98
   3 -16  -7  139.01    3.36
   3 -16  -8   90.10    3.13
   3 -16  -9   39.75    2.63
   3 -16 -10    2.63    1.22
   3 -16 -11   29.15    2.01
   3 -16 -12   11.79    1.68
   3 -16 -13    7.94    1.48
   3 -16 -14    1.94    1.22
   3 -16 -15   79.00    2.40
   3 -16 -16    9.65    2.01
   3 -16 -17    0.49    1.25
   3 -17  -4   28.42    2.90
   3 -17  -5   29.64    2.21
   3 -17  -6  100.94    3.13
   3 -17  -7   29.87    2.04
   3 -17  -8  117.07    4.08
   3 -17  -9   29.87    2.07
   3 -17 -10    5.30    1.28
   3 -17 -11  101.17    4.08
   3 -17 -12   64.32    2.63
   3 -17 -13   26.25    2.90
   3 -17 -14    0.72    1.22
   3 -17 -15   14.23    2.11
   3 -18  -4  128.40    3.36
   3 -18  -5    5.07    1.28
   3 -18  -6    2.63    1.25
   3 -18  -7   55.89    3.36
   3 -18  -8   33.72    2.31
   3 -18  -9    0.49    1.22
   3 -18 -10  123.83    3.13
   3 -18 -11    3.36    1.28
   3 -18 -12   11.33    1.71
   3 -18 -13   24.07    2.40
   3 -18 -14    9.16    1.38
   3 -19  -4    9.65    1.88
   3 -19  -5   33.00    2.11
   3 -19  -6   28.91    2.04
   3 -19  -7   19.99    1.91
   3 -19  -8   24.07    1.84
   3 -19  -9    0.23    1.15
   3 -19 -10    0.23    1.19
   3 -19 -11    1.22    1.38
   3 -20  -4   80.68    3.62
   3 -20  -5   93.46    2.90
   3 -20  -6    7.21    1.48
   3 -20  -7  134.66    3.36
   3 -20  -8    0.00    1.22
   3 -20  -9   12.05    1.71
   4   0  -4  248.34   13.73
   4   0  -5    1.68    1.28
   4   0  -6  873.47   13.50
   4   0  -7    0.49    0.86
   4   0  -8 3028.00   74.69
   4   0  -9    0.72    1.22
   4   0 -10   62.41    2.63
   4   0 -11    0.49    0.92
   4   0 -12  102.85    4.35
   4   0 -13   -0.23    0.86
   4   0 -14    1.22    0.82
   4   0 -15    0.00    0.82
   4   0 -16   71.30    2.21
   4   0 -17    0.00    0.96
   4   0 -18  674.98   12.28
   4   0 -19    0.49    1.12
   4   0 -20   60.46    2.63
   4   0 -21   -0.23    1.12
   4   0 -22   34.45    2.40
   4   0 -23    0.72    1.61
   4   0 -24   52.26    3.62
   4   0 -25    0.23    1.25
   4  -1  -4 1305.87   19.50
   4  -1  -5   95.41    3.62
   4  -1  -6  115.86    4.08
   4  -1  -7  315.10    8.20
   4  -1  -8  350.99    9.39
   4  -1  -9    0.96    1.02
   4  -1 -10   18.80    2.27
   4  -1 -11   58.06    2.27
   4  -1 -12   16.14    1.65
   4  -1 -13  245.71    6.26
   4  -1 -14   59.97    2.01
   4  -1 -15  215.11    3.62
   4  -1 -16    7.48    1.28
   4  -1 -17    0.00    0.96
   4  -1 -18   31.55    1.94
   4  -1 -19    2.63    1.28
   4  -1 -20   17.59    1.81
   4  -1 -21   19.76    1.88
   4  -1 -22   28.65    2.04
   4  -1 -23    2.90    1.55
   4  -1 -24    0.96    1.42
   4  -1 -25   24.07    2.63
   4  -2  -4  279.43    6.26
   4  -2  -5   30.10    1.68
   4  -2  -6  207.18    5.53
   4  -2  -7   12.28    1.38
   4  -2  -8    0.49    1.02
   4  -2  -9  405.89    8.92
   4  -2 -10   11.56    1.45
   4  -2 -11  618.37    8.92
   4  -2 -12  162.59    3.62
   4  -2 -13   18.80    1.51
   4  -2 -14  297.25    6.03
   4  -2 -15   20.22    1.61
   4  -2 -16  100.71    2.63
   4  -2 -17   -0.23    0.96
   4  -2 -18   26.02    2.11
   4  -2 -19   11.79    1.71
   4  -2 -20   55.66    2.90
   4  -2 -21  213.67    5.07
   4  -2 -22   20.22    2.37
   4  -2 -23    2.90    1.22
   4  -2 -24  187.19    5.07
   4  -2 -25   65.54    2.40
   4  -3  -4  200.20    4.35
   4  -3  -5   43.37    1.91
   4  -3  -6   15.91    1.48
   4  -3  -7  512.63   10.83
   4  -3  -8    2.17    1.02
   4  -3  -9  159.46    6.49
   4  -3 -10  530.67    7.94
   4  -3 -11  113.72    3.13
   4  -3 -12  758.33   10.83
   4  -3 -13   49.14    1.94
   4  -3 -14   78.54    2.37
   4  -3 -15    0.23    0.92
   4  -3 -16   11.33    1.55
   4  -3 -17  383.27    6.98
   4  -3 -18   17.36    1.78
   4  -3 -19   13.73    1.65
   4  -3 -20  131.76    3.13
   4  -3 -21   55.39    2.40
   4  -3 -22   64.09    2.63
   4  -3 -23    0.49    1.25
   4  -3 -24   54.44    2.90
   4  -4  -4  626.31   10.83
   4  -4  -5  314.60    7.48
   4  -4  -6   88.16    2.90
   4  -4  -7   50.81    2.37
   4  -4  -8    0.49    1.02
   4  -4  -9    9.39    2.11
   4  -4 -10   96.13    3.85
   4  -4 -11  259.21    5.80
   4  -4 -12    4.58    1.09
   4  -4 -13   19.99    1.58
   4  -4 -14   25.29    1.65
   4  -4 -15   21.21    1.88
   4  -4 -16   78.54    2.40
   4  -4 -17    1.94    1.09
   4  -4 -18   47.46    2.40
   4  -4 -19    5.07    1.15
   4  -4 -20    4.35    1.19
   4  -4 -21  210.04    4.81
   4  -4 -22   19.76    1.91
   4  -4 -23   18.54    1.94
   4  -4 -24    5.07    1.25
   4  -5  -4   57.57    2.40
   4  -5  -5  395.78   11.07
   4  -5  -6  203.56    6.26
   4  -5  -7  483.48   11.79
   4  -5  -8   18.08    1.51
   4  -5  -9  726.29    9.16
   4  -5 -10   86.25    2.63
   4  -5 -11  548.75   20.48
   4  -5 -12    1.22    1.05
   4  -5 -13   45.28    1.91
   4  -5 -14  133.94    6.75
   4  -5 -15    8.92    1.32
   4  -5 -16   -0.23    0.96
   4  -5 -17   24.57    2.24
   4  -5 -18  167.66    4.08
   4  -5 -19   16.86    2.04
   4  -5 -20    2.63    1.19
   4  -5 -21  116.58    3.36
   4  -5 -22   31.32    2.04
   4  -5 -23  246.66    4.35
   4  -5 -24   15.64    4.58
   4  -6  -4   49.14    3.13
   4  -6  -5  139.96    4.58
   4  -6  -6  144.31    5.07
   4  -6  -7   18.80    1.58
   4  -6  -8    4.81    1.05
   4  -6  -9    2.40    1.05
   4  -6 -10 1221.07   36.13
   4  -6 -11   88.42    3.85
   4  -6 -12  183.57    6.49
   4  -6 -13  281.37    6.75
   4  -6 -14   85.03    2.63
   4  -6 -15  113.95    4.08
   4  -6 -16    1.68    1.12
   4  -6 -17    0.72    1.12
   4  -6 -18    6.98    1.19
   4  -6 -19    0.23    1.12
   4  -6 -20   11.07    1.75
   4  -6 -21   60.69    2.63
   4  -6 -22  102.12    4.08
   4  -6 -23    6.75    1.28
   4  -6 -24    5.80    1.28
   4  -7  -4  625.85    8.43
   4  -7  -5    0.96    1.05
   4  -7  -6  253.41    4.08
   4  -7  -7    1.22    1.02
   4  -7  -8   36.13    2.01
   4  -7  -9   83.12    3.85
   4  -7 -10   78.54    2.63
   4  -7 -11  474.79   13.96
   4  -7 -12   39.02    2.04
   4  -7 -13   39.98    2.40
   4  -7 -14  406.16    7.71
   4  -7 -15  184.03    5.80
   4  -7 -16   11.79    1.71
   4  -7 -17   19.27    2.63
   4  -7 -18   95.14    3.36
   4  -7 -19   41.92    2.40
   4  -7 -20   35.90    2.04
   4  -7 -21   16.63    1.84
   4  -7 -22   31.55    1.98
   4  -7 -23    3.36    1.19
   4  -8  -4    0.96    1.02
   4  -8  -5  252.46    9.65
   4  -8  -6   11.56    1.61
   4  -8  -7 1487.49   84.31
   4  -8  -8   17.82    1.75
   4  -8  -9  216.33    3.62
   4  -8 -10   71.30    3.85
   4  -8 -11   26.02    2.21
   4  -8 -12   17.09    1.58
   4  -8 -13   74.20    2.63
   4  -8 -14  161.40    5.53
   4  -8 -15   17.09    2.14
   4  -8 -16    0.23    1.12
   4  -8 -17   10.11    1.51
   4  -8 -18    0.96    1.12
   4  -8 -19  230.79    4.08
   4  -8 -20   23.12    1.91
   4  -8 -21   47.95    2.63
   4  -8 -22   47.95    2.17
   4  -8 -23    0.49    1.22
   4  -9  -4    0.00    0.99
   4  -9  -5   64.09    2.90
   4  -9  -6   32.04    1.65
   4  -9  -7   20.22    1.65
   4  -9  -8   24.57    1.65
   4  -9  -9  119.48    4.35
   4  -9 -10   26.51    1.94
   4  -9 -11   54.93    3.36
   4  -9 -12   85.53    3.62
   4  -9 -13    5.30    1.75
   4  -9 -14   13.50    2.01
   4  -9 -15  116.84    3.13
   4  -9 -16   28.42    2.40
   4  -9 -17   83.12    3.36
   4  -9 -18   41.43    2.40
   4  -9 -19   50.58    3.13
   4  -9 -20    1.94    1.19
   4  -9 -21   46.24    2.11
   4  -9 -22   16.63    1.78
   4 -10  -4    7.94    1.32
   4 -10  -5   15.18    1.48
   4 -10  -6  100.21    3.62
   4 -10  -7  171.28    5.30
   4 -10  -8  326.89    6.75
   4 -10  -9   62.64    3.62
   4 -10 -10  171.28    4.81
   4 -10 -11  113.45    5.53
   4 -10 -12    6.49    1.38
   4 -10 -13  481.08   10.83
   4 -10 -14   65.77    5.07
   4 -10 -15  179.22    4.08
   4 -10 -16    5.30    1.22
   4 -10 -17    1.45    1.19
   4 -10 -18  110.82    3.36
   4 -10 -19    7.71    1.98
   4 -10 -20   57.57    2.63
   4 -10 -21   23.61    1.98
   4 -10 -22    4.08    1.28
   4 -11  -4   15.91    1.61
   4 -11  -5    0.49    0.96
   4 -11  -6   83.85    4.58
   4 -11  -7   79.73    2.40
   4 -11  -8    6.75    1.32
   4 -11  -9   79.96    3.85
   4 -11 -10   19.27    1.98
   4 -11 -11   23.61    1.84
   4 -11 -12    6.75    1.35
   4 -11 -13  189.82    6.49
   4 -11 -14   11.79    1.61
   4 -11 -15  367.85    5.53
   4 -11 -16   10.83    1.65
   4 -11 -17    7.48    2.14
   4 -11 -18  131.04    4.08
   4 -11 -19    5.53    1.32
   4 -11 -20    3.85    1.22
   4 -11 -21   91.06    2.90
   4 -12  -4   47.95    2.34
   4 -12  -5  113.22    4.58
   4 -12  -6  126.23    4.08
   4 -12  -7  203.79    6.03
   4 -12  -8  139.24    6.03
   4 -12  -9   16.63    2.01
   4 -12 -10  286.68    5.53
   4 -12 -11  101.17    5.30
   4 -12 -12  144.31    7.71
   4 -12 -13   51.80    3.85
   4 -12 -14    0.49    1.09
   4 -12 -15   26.25    1.98
   4 -12 -16   31.32    3.36
   4 -12 -17    0.96    1.15
   4 -12 -18    9.65    1.58
   4 -12 -19   26.74    2.11
   4 -12 -20    8.43    1.55
   4 -13  -4  104.56    3.13
   4 -13  -5   51.31    2.27
   4 -13  -6   59.97    2.37
   4 -13  -7    0.23    1.12
   4 -13  -8   48.41    2.63
   4 -13  -9   12.05    1.68
   4 -13 -10  212.22    7.94
   4 -13 -11   12.28    1.65
   4 -13 -12  382.77    6.49
   4 -13 -13   18.80    1.71
   4 -13 -14   41.66    2.63
   4 -13 -15    3.13    1.15
   4 -13 -16   27.70    5.07
   4 -13 -17   14.23    3.13
   4 -13 -18  115.13    5.53
   4 -13 -19    5.30    1.28
   4 -14  -4  131.99    3.62
   4 -14  -5   13.73    1.81
   4 -14  -6    2.63    1.19
   4 -14  -7   -0.23    1.09
   4 -14  -8    0.00    1.09
   4 -14  -9   45.28    1.98
   4 -14 -10  311.71   12.78
   4 -14 -11  111.05    3.62
   4 -14 -12   12.78    1.61
   4 -14 -13    6.49    1.25
   4 -14 -14   36.39    3.62
   4 -14 -15    1.45    1.22
   4 -14 -16   70.84    5.80
   4 -14 -17    1.22    1.12
   4 -14 -18   25.06    3.62
   4 -15  -4    0.49    1.15
   4 -15  -5    2.63    1.22
   4 -15  -6   60.96    2.63
   4 -15  -7   49.40    2.14
   4 -15  -8   78.54    3.13
   4 -15  -9   46.24    2.31
   4 -15 -10  139.24    3.36
   4 -15 -11   61.68    2.31
   4 -15 -12    4.58    1.22
   4 -15 -13   41.92    2.11
   4 -15 -14   48.41    2.63
   4 -15 -15   13.50    1.94
   4 -15 -16    2.17    1.09
   4 -15 -17   41.20    2.63
   4 -16  -4   13.24    1.71
   4 -16  -5    1.68    1.12
   4 -16  -6    0.23    1.12
   4 -16  -7   23.12    1.81
   4 -16  -8   67.45    2.90
   4 -16  -9    5.30    1.22
   4 -16 -10  304.49    6.75
   4 -16 -11   34.94    2.11
   4 -16 -12   25.79    1.88
   4 -16 -13   87.93    2.63
   4 -16 -14    8.20    1.38
   4 -16 -15   40.24    4.58
   4 -16 -16   16.86    7.48
   4 -17  -4    1.94    1.15
   4 -17  -5    0.23    1.12
   4 -17  -6    1.45    1.15
   4 -17  -7   77.33    2.40
   4 -17  -8    0.49    1.12
   4 -17  -9   24.34    1.88
   4 -17 -10   11.79    1.61
   4 -17 -11  118.98    3.36
   4 -17 -12   11.79    1.61
   4 -17 -13    7.21    1.32
   4 -17 -14   11.33    1.94
   4 -18  -4   58.06    2.31
   4 -18  -5   31.09    2.11
   4 -18  -6    6.26    1.25
   4 -18  -7  287.14   31.32
   4 -18  -8   12.28    1.75
   4 -18  -9   33.23    2.24
   4 -18 -10    3.13    1.22
   4 -18 -11   30.59    2.90
   4 -18 -12    3.85    1.28
   4 -19  -4  222.10   31.32
   4 -19  -5    3.36    1.15
   4 -19  -6   14.23    1.68
   4 -19  -7    3.13    1.19
   4 -19  -8   33.95    2.01
   4 -19  -9   25.29    1.84
   4 -19 -10    5.53    1.38
   5   0  -6  893.23   17.36
   5   0  -7   -0.49    1.45
   5   0  -8    2.17    0.76
   5   0  -9   -0.23    0.72
   5   0 -10    0.72    2.11
   5   0 -11    0.49    2.11
   5   0 -12   40.24    2.04
   5   0 -13    0.49    1.02
   5   0 -14    0.23    0.92
   5   0 -15    0.23    0.96
   5   0 -16  763.87   31.32
   5   0 -17    0.23    1.12
   5   0 -18  661.25   14.95
   5   0 -19    0.23    0.89
   5   0 -20   71.30    2.37
   5   0 -21   -0.72    1.12
   5   0 -22    7.94    1.38
   5   0 -23    0.00    2.37
   5   0 -24   23.38    1.71
   5  -1  -6  209.35    4.81
   5  -1  -7   13.96    1.05
   5  -1  -8   51.54    2.07
   5  -1  -9  170.79    3.13
   5  -1 -10    5.07    1.02
   5  -1 -11  205.96    3.85
   5  -1 -12  414.09    6.03
   5  -1 -13    0.72    0.89
   5  -1 -14  268.37    6.26
   5  -1 -15    3.13    1.09
   5  -1 -16    1.94    1.09
   5  -1 -17    4.08    1.28
   5  -1 -18  221.37    5.80
   5  -1 -19    8.92    1.58
   5  -1 -20   16.37    1.65
   5  -1 -21  158.50    4.08
   5  -1 -22   24.80    3.13
   5  -1 -23   34.22    2.11
   5  -1 -24  128.63    4.81
   5  -2  -6    0.49    0.86
   5  -2  -7   18.54    1.28
   5  -2  -8  297.97   14.23
   5  -2  -9    0.00    0.76
   5  -2 -10  604.14    8.92
   5  -2 -11    5.80    1.12
   5  -2 -12   16.63    1.84
   5  -2 -13  378.20    5.80
   5  -2 -14  412.87    8.66
   5  -2 -15  503.21    8.20
   5  -2 -16   10.60    1.65
   5  -2 -17   26.02    2.01
   5  -2 -18   53.98    2.63
   5  -2 -19    2.63    0.96
   5  -2 -20    5.07    1.05
   5  -2 -21   28.65    1.84
   5  -2 -22   14.46    1.61
   5  -2 -23    5.30    1.15
   5  -2 -24   10.37    2.31
   5  -3  -6  214.88    3.36
   5  -3  -7  443.47    7.48
   5  -3  -8    2.17    0.86
   5  -3  -9  101.66    2.63
   5  -3 -10   24.80    1.71
   5  -3 -11  652.82    9.39
   5  -3 -12   22.39    1.58
   5  -3 -13   25.06    1.68
   5  -3 -14   53.98    2.37
   5  -3 -15   78.54    2.90
   5  -3 -16    0.00    1.19
   5  -3 -17    7.48    1.55
   5  -3 -18  144.77    4.35
   5  -3 -19   99.26    2.40
   5  -3 -20   16.86    1.55
   5  -3 -21  142.14    3.13
   5  -3 -22   37.81    1.94
   5  -3 -23   59.97    2.21
   5  -3 -24    2.90    1.05
   5  -4  -6  131.04    4.08
   5  -4  -7   85.26    2.24
   5  -4  -8   14.46    1.38
   5  -4  -9    4.08    0.99
   5  -4 -10    6.49    1.15
   5  -4 -11   37.08    1.81
   5  -4 -12   44.82    2.37
   5  -4 -13   58.29    2.40
   5  -4 -14    0.49    1.02
   5  -4 -15   33.95    2.11
   5  -4 -16   22.39    2.24
   5  -4 -17  292.67    6.03
   5  -4 -18    0.49    0.96
   5  -4 -19    1.68    0.99
   5  -4 -20    5.80    1.12
   5  -4 -21   42.38    1.94
   5  -4 -22   14.69    1.65
   5  -4 -23   28.19    1.84
   5  -5  -6   16.37    1.65
   5  -5  -7  221.14    5.07
   5  -5  -8  105.75    2.63
   5  -5  -9  185.97    5.07
   5  -5 -10  464.18    7.21
   5  -5 -11   52.03    2.63
   5  -5 -12  256.54    6.98
   5  -5 -13  447.58    9.16
   5  -5 -14    0.72    1.22
   5  -5 -15    5.53    1.28
   5  -5 -16    3.36    1.25
   5  -5 -17   54.44    2.63
   5  -5 -18    0.49    0.99
   5  -5 -19    6.03    1.12
   5  -5 -20   21.67    1.61
   5  -5 -21  122.87    3.62
   5  -5 -22   56.84    2.17
   5  -5 -23    0.00    1.05
   5  -6  -6   45.51    1.91
   5  -6  -7   60.46    2.34
   5  -6  -8    7.94    1.28
   5  -6  -9   32.04    2.11
   5  -6 -10  106.47    3.36
   5  -6 -11    9.65    1.35
   5  -6 -12   25.79    1.78
   5  -6 -13   89.61    3.62
   5  -6 -14  368.58   18.54
   5  -6 -15    0.49    1.15
   5  -6 -16   23.84    2.04
   5  -6 -17  113.22    7.94
   5  -6 -18   72.02    2.17
   5  -6 -19    4.81    1.19
   5  -6 -20   12.05    1.58
   5  -6 -21   58.78    2.11
   5  -6 -22   28.91    1.84
   5  -6 -23    0.49    1.05
   5  -7  -6   13.73    2.04
   5  -7  -7   30.82    1.88
   5  -7  -8   40.70    1.98
   5  -7  -9  140.19    5.53
   5  -7 -10  524.42    7.48
   5  -7 -11   88.42    4.35
   5  -7 -12  115.40    4.08
   5  -7 -13  382.77    7.48
   5  -7 -14   21.67    1.98
   5  -7 -15  336.77    6.98
   5  -7 -16    0.72    1.22
   5  -7 -17    4.58    1.02
   5  -7 -18   18.31    2.14
   5  -7 -19    9.65    1.51
   5  -7 -20   43.60    2.63
   5  -7 -21   21.93    1.68
   5  -7 -22  159.95    4.58
   5  -8  -6   81.41    4.08
   5  -8  -7  437.21    8.20
   5  -8  -8   85.26    3.36
   5  -8  -9   78.05    3.36
   5  -8 -10   73.97    3.13
   5  -8 -11    0.49    0.99
   5  -8 -12   34.94    2.24
   5  -8 -13  195.62   10.83
   5  -8 -14  145.99    6.03
   5  -8 -15  113.45    5.30
   5  -8 -16    6.49    1.09
   5  -8 -17  150.57    3.13
   5  -8 -18   50.35    2.11
   5  -8 -19   48.41    3.62
   5  -8 -20    0.00    1.09
   5  -8 -21    1.45    1.09
   5  -8 -22   12.78    1.48
   5  -9  -6   87.70    3.36
   5  -9  -7  659.80   10.37
   5  -9  -8   54.21    3.36
   5  -9  -9   62.87    5.30
   5  -9 -10    6.75    1.38
   5  -9 -11  148.62    8.20
   5  -9 -12   93.96    4.58
   5  -9 -13   73.97    3.13
   5  -9 -14   46.50    3.13
   5  -9 -15  158.73    3.13
   5  -9 -16    0.49    1.02
   5  -9 -17   41.92    1.98
   5  -9 -18   38.30    2.40
   5  -9 -19   40.70    3.13
   5  -9 -20   24.57    2.11
   5  -9 -21    0.00    1.02
   5 -10  -6   53.25    2.90
   5 -10  -7  343.75    8.43
   5 -10  -8   15.18    1.75
   5 -10  -9    5.80    1.28
   5 -10 -10    6.75    1.45
   5 -10 -11   49.86    3.62
   5 -10 -12    4.58    1.28
   5 -10 -13    3.13    1.22
   5 -10 -14  116.84    3.36
   5 -10 -15  215.61    3.62
   5 -10 -16  224.99    3.85
   5 -10 -17    1.22    1.09
   5 -10 -18   33.95    1.94
   5 -10 -19   18.31    1.81
   5 -10 -20   16.14    1.68
   5 -10 -21    2.63    1.12
   5 -11  -6   26.97    1.88
   5 -11  -7  166.21    4.81
   5 -11  -8   89.12    4.08
   5 -11  -9    5.07    1.28
   5 -11 -10  114.90    6.26
   5 -11 -11  294.84    7.71
   5 -11 -12  185.97    9.65
   5 -11 -13   12.05    2.01
   5 -11 -14    3.85    1.25
   5 -11 -15   47.69    2.63
   5 -11 -16    0.72    1.12
   5 -11 -17    8.92    1.58
   5 -11 -18    0.96    1.12
   5 -11 -19    0.00    1.68
   5 -11 -20    2.63    1.15
   5 -12  -6  217.52   10.83
   5 -12  -7   53.71    3.36
   5 -12  -8   11.56    2.04
   5 -12  -9   18.08    2.24
   5 -12 -10  151.75    5.80
   5 -12 -11    0.23    0.92
   5 -12 -12    6.98    1.12
   5 -12 -13    1.22    1.05
   5 -12 -14    4.08    1.48
   5 -12 -15   20.22    1.81
   5 -12 -16   29.87    1.91
   5 -12 -17   16.14    1.91
   5 -12 -18   60.69    2.63
   5 -12 -19   12.78    3.13
   5 -13  -6   40.97    3.13
   5 -13  -7   92.28    3.36
   5 -13  -8    6.26    1.09
   5 -13  -9   26.25    2.34
   5 -13 -10  120.70    2.63
   5 -13 -11    0.00    0.99
   5 -13 -12    2.63    1.42
   5 -13 -13    4.08    1.12
   5 -13 -14  184.03    3.62
   5 -13 -15    9.88    1.51
   5 -13 -16    0.49    1.02
   5 -13 -17   10.83    1.48
   5 -13 -18   35.90    3.36
   5 -14  -6   74.92    2.14
   5 -14  -7    2.17    0.96
   5 -14  -8    0.23    0.96
   5 -14  -9    4.35    1.05
   5 -14 -10   35.67    2.27
   5 -14 -11   16.37    1.81
   5 -14 -12    0.72    1.02
   5 -14 -13   74.92    2.37
   5 -14 -14   61.68    3.13
   5 -14 -15   55.16    2.14
   5 -14 -16   28.42    1.81
   5 -14 -17    2.90    1.02
   5 -15  -6    8.92    1.58
   5 -15  -7  108.41    3.36
   5 -15  -8   41.20    2.01
   5 -15  -9    4.81    1.12
   5 -15 -10  304.49    4.81
   5 -15 -11  207.41    3.85
   5 -15 -12  334.36    5.30
   5 -15 -13   23.12    1.65
   5 -15 -14   23.12    2.40
   5 -15 -15    0.23    0.86
   5 -15 -16    6.98    1.22
   5 -16  -6    1.68    1.12
   5 -16  -7  120.20    2.90
   5 -16  -8   24.07    1.84
   5 -16  -9   21.67    2.01
   5 -16 -10   50.09    2.07
   5 -16 -11   47.23    2.37
   5 -16 -12    6.03    1.12
   5 -16 -13   -0.23    2.40
   5 -16 -14   33.95    4.35
   5 -17  -6   51.80    2.63
   5 -17  -7   46.50    2.07
   5 -17  -8    7.48    1.38
   5 -17  -9    3.85    1.12
   5 -17 -10    6.26    1.15
   5 -17 -11   -0.49    0.99
   5 -17 -12    8.20    1.28
   5 -18  -6    0.49    1.12
   5 -18  -7   65.27    2.27
   5 -18  -8    9.16    1.51
   5 -18  -9   49.86    6.75
   6   0  -7    0.23    0.66
   6   0  -8  473.34    5.30
   6   0  -9   -0.23    0.79
   6   0 -10  720.99   24.07
   6   0 -11    0.23    0.92
   6   0 -12    0.23    1.12
   6   0 -13    0.49    1.12
   6   0 -14  334.59    5.07
   6   0 -15    0.23    0.96
   6   0 -16   72.02    2.63
   6   0 -17    0.49    1.12
   6   0 -18  350.50    4.58
   6   0 -19    0.23    0.89
   6   0 -20   60.96    2.14
   6   0 -21    0.23    1.02
   6   0 -22   30.59    1.71
   6   0 -23   -0.23    1.12
   6  -1  -6  662.47    6.03
   6  -1  -7   21.21    1.15
   6  -1  -8   92.01    3.85
   6  -1  -9    0.49    0.82
   6  -1 -10  248.11    6.26
   6  -1 -11  120.93   10.83
   6  -1 -12  184.75    4.08
   6  -1 -13    1.22    1.09
   6  -1 -14  187.65    4.58
   6  -1 -15  182.84    4.08
   6  -1 -16   38.53    2.14
   6  -1 -17   36.62    2.21
   6  -1 -18  525.86    6.49
   6  -1 -19   21.44    1.65
   6  -1 -20   29.38    1.68
   6  -1 -21    1.94    1.02
   6  -1 -22    0.72    1.12
   6  -1 -23   13.24    1.48
   6  -2  -6   11.79    0.96
   6  -2  -7   27.96    1.25
   6  -2  -8   39.75    1.61
   6  -2  -9   93.46    2.40
   6  -2 -10  211.99    4.35
   6  -2 -11  202.60    4.08
   6  -2 -12  105.75    4.58
   6  -2 -13    0.23    0.92
   6  -2 -14  125.51    3.36
   6  -2 -15  143.32    3.62
   6  -2 -16   69.62    2.63
   6  -2 -17   82.63    3.85
   6  -2 -18    8.66    1.38
   6  -2 -19    1.22    0.92
   6  -2 -20    4.08    3.36
   6  -2 -21   54.44    4.35
   6  -2 -22   16.14    1.58
   6  -2 -23   16.37    1.91
   6  -3  -6    5.80    1.84
   6  -3  -7    5.30    0.99
   6  -3  -8  128.63    2.63
   6  -3  -9  362.29   11.56
   6  -3 -10   23.12    1.78
   6  -3 -11    0.49    1.02
   6  -3 -12  236.06    5.07
   6  -3 -13   95.41    2.40
   6  -3 -14   14.23    1.58
   6  -3 -15  127.68    4.35
   6  -3 -16    1.68    1.15
   6  -3 -17  167.43    5.07
   6  -3 -18   11.33    1.61
   6  -3 -19    3.13    1.09
   6  -3 -20    1.22    1.02
   6  -3 -21  101.43    5.07
   6  -3 -22    0.96    1.02
   6  -3 -23   29.38    2.31
   6  -4  -6    3.36    0.79
   6  -4  -7  557.18    6.75
   6  -4  -8    1.45    0.92
   6  -4  -9  126.95    4.35
   6  -4 -10    0.49    1.48
   6  -4 -11  172.01    4.08
   6  -4 -12   13.96    1.71
   6  -4 -13  352.41    8.43
   6  -4 -14  111.28    5.07
   6  -4 -15   89.61    3.85
   6  -4 -16   95.14    5.07
   6  -4 -17   18.08    1.61
   6  -4 -18    2.40    1.02
   6  -4 -19   24.34    2.90
   6  -4 -20   81.90    2.37
   6  -4 -21   85.76    2.37
   6  -4 -22   19.27    1.58
   6  -4 -23    5.80    1.12
   6  -5  -6   10.83    1.48
   6  -5  -7   42.65    1.94
   6  -5  -8    4.58    1.12
   6  -5  -9   11.79    1.65
   6  -5 -10   66.26    3.62
   6  -5 -11   58.06    2.34
   6  -5 -12   26.97    2.21
   6  -5 -13  281.11    5.53
   6  -5 -14   85.99    2.63
   6  -5 -15  551.88   10.37
   6  -5 -16    0.23    1.22
   6  -5 -17   25.06    1.81
   6  -5 -18    3.85    1.09
   6  -5 -19   45.05    1.94
   6  -5 -20   30.36    1.78
   6  -5 -21    3.36    1.09
   6  -5 -22    1.22    1.02
   6  -5 -23    4.35    1.09
   6  -6  -6    3.13    1.28
   6  -6  -7  204.51    4.35
   6  -6  -8   65.04    4.35
   6  -6  -9   72.98    3.62
   6  -6 -10  221.87    7.21
   6  -6 -11   72.02    4.35
   6  -6 -12  185.48    6.03
   6  -6 -13   28.42    2.14
   6  -6 -14  102.12    4.35
   6  -6 -15    1.22    1.25
   6  -6 -16   94.19    6.98
   6  -6 -17    4.58    1.05
   6  -6 -18   17.82    1.61
   6  -6 -19   17.09    2.27
   6  -6 -20    8.20    1.48
   6  -6 -21    0.23    1.02
   6  -6 -22   63.36    3.13
   6  -7  -6   16.14    1.94
   6  -7  -7  555.96   21.93
   6  -7  -8    4.81    1.35
   6  -7  -9  470.47    8.43
   6  -7 -10    2.90    1.09
   6  -7 -11   30.10    2.01
   6  -7 -12   34.22    2.07
   6  -7 -13    3.36    1.22
   6  -7 -14  126.46    4.81
   6  -7 -15   22.89    5.07
   6  -7 -16    8.66    1.38
   6  -7 -17   19.50    1.65
   6  -7 -18    3.36    1.22
   6  -7 -19   24.80    1.75
   6  -7 -20   33.72    1.84
   6  -7 -21  102.62    7.48
   6  -7 -22    4.35    1.05
   6  -8  -6    2.63    1.25
   6  -8  -7  329.79    5.80
   6  -8  -8    3.85    1.12
   6  -8  -9   48.41    2.63
   6  -8 -10   95.14    4.08
   6  -8 -11   48.67    3.13
   6  -8 -12   40.70    3.36
   6  -8 -13    2.17    1.19
   6  -8 -14  130.08    5.07
   6  -8 -15  140.69    7.94
   6  -8 -16    0.23    1.09
   6  -8 -17  293.66   40.97
   6  -8 -18    3.85    1.15
   6  -8 -19   46.24    5.30
   6  -8 -20   22.39    1.68
   6  -8 -21   24.57    1.65
   6  -9  -6  173.45    5.07
   6  -9  -7  566.57   10.60
   6  -9  -8   20.48    1.84
   6  -9  -9   29.87    2.63
   6  -9 -10    1.68    1.22
   6  -9 -11    0.23    1.09
   6  -9 -12    0.72    1.15
   6  -9 -13    2.63    0.89
   6  -9 -14   25.79    2.40
   6  -9 -15   31.09    1.68
   6  -9 -16   53.48    7.94
   6  -9 -17  276.80   38.53
   6  -9 -18  172.96   26.51
   6  -9 -19   33.49    5.07
   6  -9 -20    8.66    1.42
   6  -9 -21    3.62    1.12
   6 -10  -6  398.68    6.98
   6 -10  -7    0.49    1.38
   6 -10  -8   41.20    2.90
   6 -10  -9    8.43    1.58
   6 -10 -10   15.91    1.78
   6 -10 -11   69.85    3.85
   6 -10 -12    0.23    0.86
   6 -10 -13    6.03    2.40
   6 -10 -14   28.19    1.84
   6 -10 -15    0.23    1.05
   6 -10 -16   43.11    4.08
   6 -10 -17    5.53    1.22
   6 -10 -18   55.89    6.98
   6 -10 -19    3.13    1.28
   6 -10 -20   34.22    6.75
   6 -11  -6    0.23    1.02
   6 -11  -7   91.55    3.36
   6 -11  -8    5.07    1.48
   6 -11  -9   18.54    1.94
   6 -11 -10  102.39    8.43
   6 -11 -11   71.79    8.20
   6 -11 -12   50.81    4.58
   6 -11 -13    3.85    1.02
   6 -11 -14   11.79    2.37
   6 -11 -15    7.21    2.01
   6 -11 -16    4.81    1.15
   6 -11 -17    5.30    1.12
   6 -11 -18    0.23    1.22
   6 -11 -19    6.75    2.90
   6 -12  -6  173.69   36.13
   6 -12  -7   21.44    5.53
   6 -12  -8  146.94    2.63
   6 -12  -9    3.13    0.92
   6 -12 -10   39.98    1.68
   6 -12 -11   26.97    4.35
   6 -12 -12   35.67    1.91
   6 -12 -13   21.44    1.55
   6 -12 -14   19.27    1.58
   6 -12 -15   29.87    3.36
   6 -12 -16   85.76    7.94
   6 -12 -17    0.96    1.38
   6 -12 -18  106.24   22.89
   6 -13  -6   31.55    1.58
   6 -13  -7   21.93    1.55
   6 -13  -8  118.03    8.92
   6 -13  -9   -0.23    0.89
   6 -13 -10    0.49    0.96
   6 -13 -11    2.90    1.02
   6 -13 -12   51.80    1.94
   6 -13 -13    1.45    1.55
   6 -13 -14  219.46   12.51
   6 -13 -15   36.85    6.03
   6 -13 -16    6.03    2.90
   6 -13 -17   33.23   12.28
   6 -14  -6    2.17    1.02
   6 -14  -7    0.96    1.35
   6 -14  -8    8.92    1.25
   6 -14  -9    0.72    0.96
   6 -14 -10   47.69    5.30
   6 -14 -11   47.23    1.88
   6 -14 -12    6.26    1.12
   6 -14 -13   48.41    2.11
   6 -14 -14    8.20    1.28
   6 -14 -15   75.42    7.21
   6 -14 -16    5.80    3.13
   6 -15  -6    1.22    1.02
   6 -15  -7    0.49    1.02
   6 -15  -8   43.83    2.31
   6 -15  -9   28.42    2.63
   6 -15 -10  122.87    8.92
   6 -15 -11    0.72    0.99
   6 -15 -12   39.52    2.63
   6 -15 -13   -0.23    1.22
   6 -15 -14   19.27    3.62
   6 -16  -6   65.77    6.26
   6 -16  -7   12.28    1.65
   6 -16  -8   -0.96    1.15
   6 -16  -9    4.81    1.09
   6 -16 -10    0.00    0.96
   6 -16 -11    8.92    1.48
   6 -16 -12   29.38    2.90
   6 -17  -6   39.75    2.01
   6 -17  -7  174.87   20.22
   6 -17  -8    3.36    1.12
   6 -17  -9   38.53    2.01
   7   0  -8   35.40    1.55
   7   0  -9   -0.23    0.86
   7   0 -10    0.96    0.89
   7   0 -11   -0.96    1.12
   7   0 -12  190.78    4.35
   7   0 -13    0.23    1.15
   7   0 -14   14.46    2.01
   7   0 -15    0.23    1.48
   7   0 -16    6.49    0.86
   7   0 -17   -0.23    0.76
   7   0 -18  137.30    2.63
   7   0 -19    0.49    0.92
   7   0 -20   29.15    1.75
   7   0 -21    0.72    0.89
   7   0 -22   14.46    1.65
   7  -1  -8  241.36   11.07
   7  -1  -9  298.24    8.66
   7  -1 -10  276.53    4.81
   7  -1 -11   53.25    2.27
   7  -1 -12   47.69    2.63
   7  -1 -13  104.07    3.36
   7  -1 -14   40.47    2.40
   7  -1 -15   11.79    2.01
   7  -1 -16    1.68    0.76
   7  -1 -17   40.47    1.65
   7  -1 -18   16.14    1.48
   7  -1 -19  125.51    2.63
   7  -1 -20    4.35    1.02
   7  -1 -21  128.86    2.90
   7  -1 -22    6.98    1.28
   7  -2  -8  114.90    4.81
   7  -2  -9   53.48    2.11
   7  -2 -10   68.89    2.37
   7  -2 -11    9.65    1.45
   7  -2 -12  152.97    4.08
   7  -2 -13   55.89    2.90
   7  -2 -14    6.03    1.65
   7  -2 -15   23.38    2.31
   7  -2 -16    1.22    0.86
   7  -2 -17  110.55    3.85
   7  -2 -18   53.48    1.84
   7  -2 -19    4.08    1.05
   7  -2 -20   56.84    2.90
   7  -2 -21   19.76    1.58
   7  -2 -22   38.53    2.34
   7  -3  -8  150.80    5.30
   7  -3  -9    7.48    1.22
   7  -3 -10  443.47    7.21
   7  -3 -11  340.85    6.26
   7  -3 -12  119.97    4.35
   7  -3 -13    5.30    1.75
   7  -3 -14   -1.22    1.88
   7  -3 -15    7.21    1.51
   7  -3 -16   26.25    1.61
   7  -3 -17   35.67    1.71
   7  -3 -18  150.30    2.90
   7  -3 -19   32.27    4.35
   7  -3 -20   86.48    2.34
   7  -3 -21   32.27    2.21
   7  -3 -22    7.71    2.01
   7  -4  -8    2.90    1.02
   7  -4  -9   61.42    2.37
   7  -4 -10  109.37    3.13
   7  -4 -11   40.24    3.13
   7  -4 -12    0.72    1.28
   7  -4 -13   44.10    2.63
   7  -4 -14  213.90    8.92
   7  -4 -15  334.59    4.35
   7  -4 -16   81.18    3.36
   7  -4 -17    8.66    1.48
   7  -4 -18   24.57    1.65
   7  -4 -19    0.72    0.96
   7  -4 -20   12.51    1.48
   7  -4 -21    0.23    0.96
   7  -4 -22   14.46    1.48
   7  -5  -8    4.35    1.25
   7  -5  -9  124.06    4.81
   7  -5 -10   83.12    2.90
   7  -5 -11    1.45    2.21
   7  -5 -12    1.22    1.32
   7  -5 -13  214.88    5.53
   7  -5 -14    0.23    1.22
   7  -5 -15  109.86    2.27
   7  -5 -16    0.96    0.96
   7  -5 -17   43.83    1.78
   7  -5 -18   49.40    3.36
   7  -5 -19   25.79    1.68
   7  -5 -20    9.39    1.48
   7  -5 -21    0.49    0.96
   7  -6  -8    0.49    1.15
   7  -6  -9  208.86    6.49
   7  -6 -10   55.89    2.90
   7  -6 -11   15.64    2.01
   7  -6 -12   49.40    3.36
   7  -6 -13    2.90    1.25
   7  -6 -14   83.12    2.07
   7  -6 -15   59.74    4.35
   7  -6 -16  165.02   11.33
   7  -6 -17   27.96    1.75
   7  -6 -18  140.69    6.75
   7  -6 -19    1.94    1.02
   7  -6 -20   48.41    2.31
   7  -6 -21    3.13    1.02
   7  -7  -8   53.48    3.36
   7  -7  -9    0.23    1.32
   7  -7 -10  383.00    7.94
   7  -7 -11   52.76    3.13
   7  -7 -12    0.72    1.19
   7  -7 -13    7.48    1.02
   7  -7 -14   52.26    1.91
   7  -7 -15    8.92    1.51
   7  -7 -16    2.90    0.96
   7  -7 -17    6.03    2.37
   7  -7 -18    0.23    0.96
   7  -7 -19    9.39    2.37
   7  -7 -20  132.98    9.88
   7  -7 -21   14.95    1.48
   7  -8  -8   25.79    2.27
   7  -8  -9   62.41    3.13
   7  -8 -10   56.12    2.90
   7  -8 -11   87.93    3.62
   7  -8 -12   13.24    1.28
   7  -8 -13    9.16    1.35
   7  -8 -14  135.62    9.39
   7  -8 -15    1.22    0.92
   7  -8 -16    5.80    1.02
   7  -8 -17  109.60   19.27
   7  -8 -18   17.36    4.08
   7  -8 -19    6.03    1.32
   7  -8 -20    0.72    1.12
   7  -9  -8  276.53    6.75
   7  -9  -9    7.71    1.78
   7  -9 -10    1.22    0.82
   7  -9 -11   68.66    1.91
   7  -9 -12    5.30    0.96
   7  -9 -13   21.21    1.48
   7  -9 -14    0.23    0.99
   7  -9 -15   61.91    8.66
   7  -9 -16    6.26    1.12
   7  -9 -17   48.90    6.75
   7  -9 -18   84.31    9.39
   7  -9 -19   97.81   16.86
   7 -10  -8   41.43    1.84
   7 -10  -9  133.94    2.40
   7 -10 -10    2.63    0.89
   7 -10 -11  112.00    2.37
   7 -10 -12   32.04    1.65
   7 -10 -13   35.90    3.36
   7 -10 -14   22.16    1.65
   7 -10 -15    4.58    1.12
   7 -10 -16    0.23    0.96
   7 -10 -17  171.02   50.58
   7 -10 -18   -0.23    0.99
   7 -10 -19    5.80    1.12
   7 -11  -8   23.84    1.61
   7 -11  -9  404.21    5.07
   7 -11 -10    3.13    0.96
   7 -11 -11   78.05    2.11
   7 -11 -12    0.72    0.96
   7 -11 -13   22.16    1.48
   7 -11 -14    0.96    0.92
   7 -11 -15   16.37    2.40
   7 -11 -16    2.63    1.02
   7 -11 -17   17.59    5.53
   7 -11 -18   69.39    2.34
   7 -12  -8   19.27    1.51
   7 -12  -9   -0.23    0.92
   7 -12 -10   -0.49    0.96
   7 -12 -11    1.45    0.89
   7 -12 -12   20.71    1.48
   7 -12 -13   18.80    1.71
   7 -12 -14  145.99   16.37
   7 -12 -15   17.82    1.61
   7 -12 -16    1.22    1.02
   7 -13  -8   90.56    2.31
   7 -13  -9    1.94    0.96
   7 -13 -10    6.49    1.02
   7 -13 -11    0.23    0.89
   7 -13 -12   74.20    3.85
   7 -13 -13    3.62    1.22
   7 -13 -14   26.51    1.55
   7 -13 -15    2.40    5.53
   7 -14  -8    0.49    0.92
   7 -14  -9   22.66    3.36
   7 -14 -10   21.67    2.21
   7 -14 -11   33.72    2.90
   7 -14 -12    9.65    1.38
   7 -14 -13    3.62    2.07
   7 -15  -8    0.96    1.02
   7 -15  -9   52.99    2.40
   7 -15 -10   35.67    3.36
   7 -15 -11   88.42    6.98
   8   0  -8   49.63    1.88
   8   0  -9    0.23    0.92
   8   0 -10   83.35    2.63
   8   0 -11    0.49    1.02
   8   0 -12   46.24    2.40
   8   0 -19    1.22    0.82
   8   0 -20   34.68    1.84
   8   0 -21   -1.45    1.09
   8  -1  -8    0.00    0.86
   8  -1  -9  296.79    8.20
   8  -1 -10   30.36    2.04
   8  -1 -11  174.41    4.08
   8  -1 -12   12.28    1.71
   8  -1 -19   14.46    1.58
   8  -1 -20    7.94    1.48
   8  -1 -21   57.57    1.94
   8  -2  -8   32.27    1.65
   8  -2  -9   11.79    1.48
   8  -2 -10  157.05    3.62
   8  -2 -11  225.22    4.81
   8  -2 -12   75.42    2.90
   8  -2 -19    5.53    0.96
   8  -2 -20  238.00    3.85
   8  -2 -21  115.86    4.35
   8  -3  -8  196.34    3.85
   8  -3  -9   20.71    1.75
   8  -3 -10   44.82    2.21
   8  -3 -11    4.35    1.28
   8  -3 -19    0.49    0.82
   8  -3 -20   49.40    3.62
   8  -4  -8   -0.96    2.04
   8  -4  -9   30.36    2.07
   8  -4 -10   14.46    2.27
   8  -4 -18    0.96    0.86
   8  -4 -19   13.50    1.32
   8  -4 -20    1.94    0.92
   8  -5  -8    1.45    1.22
   8  -5  -9   29.15    2.37
   8  -5 -18   73.97    2.01
   8  -5 -19   77.09    2.07
   8  -5 -20    0.96    1.09
   8  -6 -17   71.79    2.14
   8  -6 -18  125.27    2.63
   8  -6 -19    9.65    1.35
   8  -7 -16    0.72    0.99
   8  -7 -17    0.96    0.89
   8  -7 -18   61.68    1.98
   8  -7 -19    1.22    0.92
   8  -8 -16    2.40    1.02
   8  -8 -17   15.18    1.71
   8  -8 -18    2.90    1.12
   8  -9 -15   10.60    1.32
   8  -9 -16   22.66    1.61
   8  -9 -17  145.99    3.13
   8 -10 -13    8.43    1.25
   8 -10 -14    1.45    1.19
   8 -10 -15   29.15    1.55
   8 -10 -16    1.45    0.96
   8 -11 -12    0.72    0.96
   8 -11 -13   38.79    1.61
   8 -11 -14   38.07    1.88
   8 -11 -15   95.87    2.24
   8 -12 -10    1.94    0.92
   8 -12 -11  122.15    2.40
   8 -12 -12   67.68    1.98
   8 -12 -13   31.81    1.55
   8 -13  -8   36.62    1.65
   8 -13  -9   36.13    1.65
   8 -13 -10    2.90    0.96
   8 -13 -11    1.68    0.96
   8 -14  -8    4.08    0.99
   0   0   0    0.00    0.00

_computing_structure_solution     'SHELXT 2018/2 (Sheldrick, 2018)'
;
_shelx_hkl_checksum                30575
_olex2_submission_special_instructions  'No special instructions were received'
